sad/pglib_opf_case1888_rte__sad.m
%%%%%%%%%%%%%%%%%%%%%%%%%%%%%%%%%%%%%%%%%%%%%%%%%%%%%%%%%%%%%%%%%%%%%%%%%%%
%%%%                                                                  %%%%%
%%%%    IEEE PES Power Grid Library - Optimal Power Flow - v17.08     %%%%%
%%%%          (https://github.com/power-grid-lib/pglib-opf)           %%%%%
%%%%             Benchmark Group - Small Angle Difference             %%%%%
%%%%                        30 - August - 2017                        %%%%%
%%%%                                                                  %%%%%
%%%%%%%%%%%%%%%%%%%%%%%%%%%%%%%%%%%%%%%%%%%%%%%%%%%%%%%%%%%%%%%%%%%%%%%%%%%
function mpc = pglib_opf_case1888_rte__sad
mpc.version = '2';
mpc.baseMVA = 100.0;

%% bus data
%	bus_i	type	Pd	Qd	Gs	Bs	area	Vm	Va	baseKV	zone	Vmax	Vmin
mpc.bus = [
	1	 1	 5.8	 -5.8	 0.0	 0.0	 1	    0.98889	    0.00000	 225.0	 1	    1.08889	    0.88889;
	2	 1	 0.0	 0.0	 0.0	 0.0	 1	    1.07552	    0.00000	 380.0	 1	    1.10263	    1.04841;
	3	 1	 142.5	 -13.4	 0.0	 0.0	 1	    1.04444	    0.00000	 225.0	 1	    1.08444	    1.00444;
	4	 1	 0.0	 0.0	 0.0	 0.0	 1	    1.00334	    0.00000	 150.0	 1	    1.10667	    0.90000;
	5	 1	 32.8	 -5.3	 0.0	 0.0	 1	    1.01111	    0.00000	 225.0	 1	    1.08889	    0.93333;
	6	 1	 40.2	 4.0	 0.0	 0.0	 1	    1.01111	    0.00000	 225.0	 1	    1.08889	    0.93333;
	7	 1	 0.0	 0.0	 0.0	 0.0	 1	    1.07237	    0.00000	 380.0	 1	    1.10526	    1.03947;
	8	 1	 0.0	 0.0	 0.0	 0.0	 1	    1.07237	    0.00000	 380.0	 1	    1.10526	    1.03947;
	9	 1	 0.0	 0.0	 0.0	 0.0	 1	    1.04739	    0.00000	 225.0	 1	    1.09035	    1.00444;
	10	 1	 148.8	 14.9	 0.0	 0.0	 1	    1.01111	    0.00000	 225.0	 1	    1.08889	    0.93333;
	11	 1	 25.6	 5.0	 0.0	 0.0	 1	    1.04666	    0.00000	 225.0	 1	    1.08889	    1.00444;
	12	 1	 39.1	 8.7	 0.0	 0.0	 1	    1.04666	    0.00000	 225.0	 1	    1.08889	    1.00444;
	13	 1	 70.5	 17.2	 0.0	 0.0	 1	    1.04666	    0.00000	 225.0	 1	    1.08889	    1.00444;
	14	 1	 36.0	 -4.2	 0.0	 0.0	 1	    1.01626	    0.00000	 225.0	 1	    1.08252	    0.95000;
	15	 1	 0.0	 0.0	 0.0	 0.0	 1	    1.04666	    0.00000	 225.0	 1	    1.08889	    1.00444;
	16	 1	 0.0	 0.0	 0.0	 0.0	 1	    1.04666	    0.00000	 225.0	 1	    1.08889	    1.00444;
	17	 1	 23.7	 -12.4	 0.0	 0.0	 1	    0.98889	    0.00000	 225.0	 1	    1.08889	    0.88889;
	18	 1	 5.9	 -4.8	 0.0	 0.0	 1	    1.04150	    0.00000	 225.0	 1	    1.09633	    0.98667;
	19	 1	 34.0	 3.7	 0.0	 0.0	 1	    1.04666	    0.00000	 225.0	 1	    1.08889	    1.00444;
	20	 1	 6.9	 0.8	 0.0	 0.0	 1	    1.04666	    0.00000	 225.0	 1	    1.08889	    1.00444;
	21	 1	 9.2	 -29.1	 0.0	 0.0	 1	    1.04666	    0.00000	 225.0	 1	    1.08889	    1.00444;
	22	 1	 67.7	 -3.6	 0.0	 0.0	 1	    1.03778	    0.00000	 225.0	 1	    1.08889	    0.98667;
	23	 1	 25.4	 -2.7	 0.0	 0.0	 1	    0.98889	    0.00000	 225.0	 1	    1.08889	    0.88889;
	25	 1	 64.0	 4.6	 0.0	 0.0	 1	    1.04666	    0.00000	 225.0	 1	    1.08444	    1.00889;
	27	 1	 71.6	 46.7	 0.0	 0.0	 1	    1.01111	    0.00000	 225.0	 1	    1.08889	    0.93333;
	28	 1	 105.4	 6.9	 0.0	 0.0	 1	    1.04666	    0.00000	 225.0	 1	    1.08889	    1.00444;
	29	 1	 0.0	 0.0	 0.0	 0.0	 1	    1.07684	    0.00000	 380.0	 1	    1.10526	    1.04842;
	30	 1	 0.0	 0.0	 0.0	 0.0	 1	    1.07684	    0.00000	 380.0	 1	    1.10526	    1.04842;
	31	 1	 21.7	 0.9	 0.0	 0.0	 1	    1.04666	    0.00000	 225.0	 1	    1.08444	    1.00889;
	33	 1	 68.9	 2.6	 0.0	 0.0	 1	    1.04666	    0.00000	 225.0	 1	    1.08444	    1.00889;
	34	 1	 50.6	 12.7	 0.0	 0.0	 1	    1.04666	    0.00000	 225.0	 1	    1.08889	    1.00444;
	35	 1	 17.0	 2.1	 0.0	 0.0	 1	    1.02333	    0.00000	 150.0	 1	    1.08000	    0.96667;
	36	 1	 38.2	 6.3	 0.0	 0.0	 1	    1.04606	    0.00000	 225.0	 1	    1.09212	    1.00000;
	37	 1	 0.0	 0.0	 0.0	 0.0	 1	    1.07655	    0.00000	 380.0	 1	    1.10526	    1.04785;
	38	 1	 89.0	 9.6	 0.0	 0.0	 1	    1.03778	    0.00000	 225.0	 1	    1.08889	    0.98667;
	2050	 1	 0.0	 0.0	 0.0	 -64.0	 1	    1.15000	    0.00000	 20.0	 1	    1.50000	    0.80000;
	39	 1	 70.9	 -2.3	 0.0	 0.0	 1	    1.02889	    0.00000	 225.0	 1	    1.08889	    0.96889;
	40	 1	 136.2	 -10.7	 0.0	 0.0	 1	    1.05263	    0.00000	 380.0	 1	    1.10526	    1.00000;
	41	 1	 64.6	 17.3	 0.0	 0.0	 1	    1.01111	    0.00000	 225.0	 1	    1.08889	    0.93333;
	42	 1	 13.4	 3.3	 0.0	 0.0	 1	    0.98889	    0.00000	 225.0	 1	    1.08889	    0.88889;
	43	 1	 33.3	 4.7	 0.0	 0.0	 1	    0.98889	    0.00000	 225.0	 1	    1.08889	    0.88889;
	44	 1	 211.6	 -1.3	 0.0	 0.0	 1	    1.04470	    0.00000	 225.0	 1	    1.08496	    1.00444;
	45	 1	 92.1	 -9.1	 0.0	 0.0	 1	    1.04666	    0.00000	 225.0	 1	    1.08889	    1.00444;
	46	 2	 0.0	 0.0	 0.0	 0.0	 1	    1.00422	    0.00000	 150.0	 1	    1.10843	    0.90000;
	47	 1	 0.0	 0.0	 0.0	 0.0	 1	    1.04666	    0.00000	 225.0	 1	    1.08889	    1.00444;
	48	 1	 0.0	 0.0	 0.0	 0.0	 1	    1.04666	    0.00000	 225.0	 1	    1.08889	    1.00444;
	49	 1	 63.7	 84.5	 0.0	 -80.0	 1	    1.04666	    0.00000	 225.0	 1	    1.08889	    1.00444;
	50	 1	 10.4	 6.6	 0.0	 0.0	 1	    1.04666	    0.00000	 225.0	 1	    1.08889	    1.00444;
	51	 1	 0.0	 0.0	 0.0	 0.0	 1	    1.04445	    0.00000	 225.0	 1	    1.08889	    1.00000;
	52	 1	 68.7	 16.5	 0.0	 0.0	 1	    0.98889	    0.00000	 225.0	 1	    1.08889	    0.88889;
	53	 1	 101.2	 15.9	 0.0	 0.0	 1	    1.02889	    0.00000	 225.0	 1	    1.08889	    0.96889;
	54	 1	 0.0	 0.0	 0.0	 0.0	 1	    1.05263	    0.00000	 380.0	 1	    1.10526	    1.00000;
	55	 1	 28.9	 10.6	 0.0	 0.0	 1	    1.04666	    0.00000	 225.0	 1	    1.08444	    1.00889;
	56	 1	 28.2	 2.1	 0.0	 0.0	 1	    1.04666	    0.00000	 225.0	 1	    1.08444	    1.00889;
	1827	 1	 109.6	 -12.9	 0.0	 0.0	 1	    1.04666	    0.00000	 225.0	 1	    1.08889	    1.00444;
	57	 1	 27.3	 -10.9	 0.0	 0.0	 1	    1.01139	    0.00000	 225.0	 1	    1.08945	    0.93333;
	58	 2	 0.0	 0.0	 0.0	 0.0	 1	    1.00431	    0.00000	 150.0	 1	    1.10862	    0.90000;
	59	 1	 36.8	 20.3	 0.0	 0.0	 1	    1.04666	    0.00000	 225.0	 1	    1.08444	    1.00889;
	60	 1	 36.5	 30.8	 0.0	 0.0	 1	    1.04666	    0.00000	 225.0	 1	    1.08444	    1.00889;
	61	 1	 0.0	 0.0	 0.0	 0.0	 1	    1.03333	    0.00000	 225.0	 1	    1.08889	    0.97778;
	62	 1	 8.4	 -0.3	 0.0	 0.0	 1	    0.98889	    0.00000	 225.0	 1	    1.08889	    0.88889;
	63	 1	 13.2	 -6.3	 0.0	 0.0	 1	    1.01111	    0.00000	 225.0	 1	    1.08889	    0.93333;
	64	 1	 13.2	 3.3	 0.0	 0.0	 1	    1.04666	    0.00000	 225.0	 1	    1.08889	    1.00444;
	65	 1	 22.7	 2.5	 0.0	 0.0	 1	    1.04666	    0.00000	 225.0	 1	    1.08889	    1.00444;
	66	 1	 11.4	 -9.7	 0.0	 0.0	 1	    1.04445	    0.00000	 225.0	 1	    1.08889	    1.00000;
	67	 1	 10.2	 -1.3	 0.0	 0.0	 1	    1.03778	    0.00000	 225.0	 1	    1.08889	    0.98667;
	68	 1	 0.0	 0.0	 0.0	 0.0	 1	    0.98889	    0.00000	 225.0	 1	    1.08889	    0.88889;
	69	 1	 0.0	 0.0	 0.0	 0.0	 1	    0.98889	    0.00000	 225.0	 1	    1.08889	    0.88889;
	70	 1	 0.0	 0.0	 0.0	 0.0	 1	    1.05921	    0.00000	 380.0	 1	    1.10526	    1.01316;
	71	 1	 39.2	 2.8	 0.0	 0.0	 1	    1.04666	    0.00000	 225.0	 1	    1.08889	    1.00444;
	72	 1	 19.3	 3.3	 0.0	 -80.0	 1	    1.04666	    0.00000	 225.0	 1	    1.08889	    1.00444;
	73	 1	 0.0	 0.0	 0.0	 0.0	 1	    1.03333	    0.00000	 225.0	 1	    1.08889	    0.97778;
	74	 1	 0.0	 0.0	 0.0	 0.0	 1	    1.03333	    0.00000	 225.0	 1	    1.08889	    0.97778;
	75	 1	 131.9	 3.2	 0.0	 0.0	 1	    1.04666	    0.00000	 225.0	 1	    1.08444	    1.00889;
	76	 1	 0.0	 0.0	 0.0	 0.0	 1	    1.04444	    0.00000	 225.0	 1	    1.08444	    1.00444;
	77	 1	 0.0	 0.0	 0.0	 0.0	 1	    1.07237	    0.00000	 380.0	 1	    1.10263	    1.04211;
	78	 1	 94.6	 -1.9	 0.0	 0.0	 1	    1.04444	    0.00000	 225.0	 1	    1.08444	    1.00444;
	79	 1	 -1.7	 -4.6	 0.0	 0.0	 1	    1.04690	    0.00000	 225.0	 1	    1.08936	    1.00444;
	80	 1	 3.6	 -7.2	 0.0	 0.0	 1	    1.04690	    0.00000	 225.0	 1	    1.08936	    1.00444;
	81	 1	 35.4	 10.9	 0.0	 0.0	 1	    0.98889	    0.00000	 225.0	 1	    1.08889	    0.88889;
	82	 1	 15.1	 0.7	 0.0	 0.0	 1	    1.01562	    0.00000	 225.0	 1	    1.08124	    0.95000;
	83	 1	 57.4	 18.0	 0.0	 0.0	 1	    0.98889	    0.00000	 225.0	 1	    1.08889	    0.88889;
	84	 1	 89.9	 -5.8	 0.0	 0.0	 1	    1.04445	    0.00000	 225.0	 1	    1.08889	    1.00000;
	85	 1	 0.0	 0.0	 0.0	 0.0	 1	    1.04445	    0.00000	 225.0	 1	    1.08889	    1.00000;
	86	 1	 239.8	 17.5	 0.0	 0.0	 1	    1.07798	    0.00000	 380.0	 1	    1.10526	    1.05070;
	87	 1	 35.5	 16.0	 0.0	 0.0	 1	    1.04445	    0.00000	 225.0	 1	    1.08889	    1.00000;
	88	 1	 76.1	 23.0	 0.0	 0.0	 1	    1.04445	    0.00000	 225.0	 1	    1.08889	    1.00000;
	89	 2	 0.0	 0.0	 0.0	 0.0	 1	    1.00000	    0.00000	 150.0	 1	    1.10000	    0.90000;
	90	 1	 21.3	 12.0	 0.0	 0.0	 1	    1.03778	    0.00000	 225.0	 1	    1.08889	    0.98667;
	91	 1	 11.2	 -5.2	 0.0	 0.0	 1	    1.04666	    0.00000	 225.0	 1	    1.08444	    1.00889;
	92	 1	 0.0	 0.0	 0.0	 0.0	 1	    1.07369	    0.00000	 380.0	 1	    1.10526	    1.04211;
	93	 1	 0.0	 0.0	 0.0	 0.0	 1	    1.07369	    0.00000	 380.0	 1	    1.10526	    1.04211;
	96	 1	 11.7	 1.3	 0.0	 0.0	 1	    1.04445	    0.00000	 225.0	 1	    1.08889	    1.00000;
	97	 1	 6.1	 1.4	 0.0	 0.0	 1	    1.04666	    0.00000	 225.0	 1	    1.08889	    1.00444;
	98	 1	 31.6	 2.6	 0.0	 0.0	 1	    1.00000	    0.00000	 150.0	 1	    1.10000	    0.90000;
	99	 1	 68.9	 -11.7	 0.0	 0.0	 1	    1.04445	    0.00000	 225.0	 1	    1.08889	    1.00000;
	100	 2	 0.2	 -0.0	 0.0	 0.0	 1	    1.01647	    0.00000	 225.0	 1	    1.08294	    0.95000;
	101	 1	 0.0	 0.0	 0.0	 0.0	 1	    1.01111	    0.00000	 225.0	 1	    1.08889	    0.93333;
	102	 1	 0.0	 0.0	 0.0	 0.0	 1	    1.07237	    0.00000	 380.0	 1	    1.10526	    1.03947;
	103	 1	 0.0	 0.0	 0.0	 0.0	 1	    1.07237	    0.00000	 380.0	 1	    1.10526	    1.03947;
	104	 1	 0.0	 0.0	 0.0	 0.0	 1	    1.04666	    0.00000	 225.0	 1	    1.08889	    1.00444;
	1828	 1	 30.1	 3.8	 0.0	 0.0	 1	    1.04666	    0.00000	 225.0	 1	    1.08889	    1.00444;
	105	 1	 0.0	 0.0	 0.0	 0.0	 1	    1.03778	    0.00000	 225.0	 1	    1.08889	    0.98667;
	106	 1	 12.1	 4.5	 0.0	 0.0	 1	    1.04666	    0.00000	 225.0	 1	    1.08889	    1.00444;
	107	 1	 106.1	 -0.3	 0.0	 0.0	 1	    1.01111	    0.00000	 225.0	 1	    1.08889	    0.93333;
	108	 1	 0.0	 0.0	 0.0	 0.0	 1	    1.07237	    0.00000	 380.0	 1	    1.10526	    1.03947;
	109	 1	 43.3	 8.4	 0.0	 0.0	 1	    1.04445	    0.00000	 225.0	 1	    1.08889	    1.00000;
	110	 1	 33.2	 -7.5	 0.0	 0.0	 1	    1.04715	    0.00000	 225.0	 1	    1.08986	    1.00444;
	111	 1	 99.5	 -12.4	 0.0	 0.0	 1	    1.04806	    0.00000	 225.0	 1	    1.09612	    1.00000;
	112	 1	 116.4	 -6.7	 0.0	 0.0	 1	    1.03778	    0.00000	 225.0	 1	    1.08889	    0.98667;
	113	 1	 65.7	 14.7	 0.0	 0.0	 1	    1.04740	    0.00000	 225.0	 1	    1.09036	    1.00444;
	114	 1	 107.2	 21.2	 0.0	 0.0	 1	    1.00667	    0.00000	 225.0	 1	    1.08889	    0.92444;
	115	 1	 56.9	 -2.7	 0.0	 0.0	 1	    1.04140	    0.00000	 225.0	 1	    1.09614	    0.98667;
	117	 1	 0.0	 0.0	 0.0	 0.0	 1	    1.07237	    0.00000	 380.0	 1	    1.10526	    1.03947;
	119	 1	 123.6	 -19.8	 0.0	 0.0	 1	    1.04444	    0.00000	 225.0	 1	    1.08444	    1.00444;
	2051	 1	 0.0	 0.0	 0.0	 -64.0	 1	    1.10000	    0.00000	 20.0	 1	    1.40000	    0.80000;
	120	 1	 33.3	 -21.3	 0.0	 0.0	 1	    1.04666	    0.00000	 225.0	 1	    1.08444	    1.00889;
	121	 1	 0.0	 0.0	 0.0	 0.0	 1	    1.06579	    0.00000	 380.0	 1	    1.10263	    1.02895;
	122	 1	 1.7	 -4.4	 0.0	 0.0	 1	    1.01111	    0.00000	 225.0	 1	    1.08889	    0.93333;
	123	 1	 140.3	 17.3	 0.0	 0.0	 1	    1.01111	    0.00000	 225.0	 1	    1.08889	    0.93333;
	124	 1	 33.7	 -1.8	 0.0	 0.0	 1	    1.00000	    0.00000	 63.0	 1	    1.07937	    0.92063;
	125	 2	 0.0	 0.0	 0.0	 0.0	 1	    1.01238	    0.00000	 225.0	 1	    1.07476	    0.95000;
	126	 1	 -1.9	 -5.4	 0.0	 0.0	 1	    1.04884	    0.00000	 225.0	 1	    1.09768	    1.00000;
	127	 1	 0.0	 0.0	 0.0	 0.0	 1	    1.07895	    0.00000	 380.0	 1	    1.10526	    1.05263;
	128	 1	 0.0	 0.0	 0.0	 0.0	 1	    1.07895	    0.00000	 380.0	 1	    1.10526	    1.05263;
	129	 1	 0.0	 0.0	 0.0	 0.0	 1	    1.07895	    0.00000	 380.0	 1	    1.10526	    1.05263;
	130	 1	 0.0	 0.0	 0.0	 0.0	 1	    1.07895	    0.00000	 380.0	 1	    1.10526	    1.05263;
	131	 1	 0.0	 0.0	 0.0	 0.0	 1	    1.04156	    0.00000	 225.0	 1	    1.09645	    0.98667;
	132	 1	 0.0	 0.0	 0.0	 0.0	 1	    1.04156	    0.00000	 225.0	 1	    1.09645	    0.98667;
	133	 1	 0.0	 0.0	 0.0	 0.0	 1	    1.07237	    0.00000	 380.0	 1	    1.10526	    1.03947;
	134	 1	 77.3	 -10.6	 0.0	 0.0	 1	    1.02889	    0.00000	 225.0	 1	    1.08889	    0.96889;
	135	 1	 28.1	 3.8	 0.0	 0.0	 1	    1.04666	    0.00000	 225.0	 1	    1.08444	    1.00889;
	136	 1	 -5.2	 -9.4	 0.0	 0.0	 1	    1.07237	    0.00000	 380.0	 1	    1.10526	    1.03947;
	137	 1	 106.4	 8.0	 0.0	 0.0	 1	    1.01111	    0.00000	 225.0	 1	    1.08889	    0.93333;
	138	 1	 0.0	 0.0	 0.0	 0.0	 1	    1.07237	    0.00000	 380.0	 1	    1.10526	    1.03947;
	140	 1	 113.7	 -8.3	 0.0	 0.0	 1	    1.04666	    0.00000	 225.0	 1	    1.08444	    1.00889;
	141	 1	 44.6	 0.5	 0.0	 0.0	 1	    1.04666	    0.00000	 225.0	 1	    1.08444	    1.00889;
	142	 1	 165.2	 -11.8	 0.0	 0.0	 1	    1.04444	    0.00000	 225.0	 1	    1.08444	    1.00444;
	143	 1	 29.2	 2.1	 0.0	 0.0	 1	    1.01111	    0.00000	 225.0	 1	    1.08889	    0.93333;
	144	 1	 32.8	 4.4	 0.0	 0.0	 1	    1.01111	    0.00000	 225.0	 1	    1.08889	    0.93333;
	145	 1	 19.0	 -18.1	 0.0	 0.0	 1	    1.04698	    0.00000	 225.0	 1	    1.08952	    1.00444;
	146	 1	 0.0	 0.0	 0.0	 0.0	 1	    1.04739	    0.00000	 225.0	 1	    1.09478	    1.00000;
	147	 1	 0.0	 0.0	 0.0	 0.0	 1	    1.04739	    0.00000	 225.0	 1	    1.09478	    1.00000;
	148	 1	 37.1	 5.6	 0.0	 0.0	 1	    1.04445	    0.00000	 225.0	 1	    1.08889	    1.00000;
	149	 1	 20.0	 -3.9	 0.0	 0.0	 1	    1.04666	    0.00000	 225.0	 1	    1.08889	    1.00444;
	150	 1	 38.1	 1.6	 0.0	 0.0	 1	    1.04666	    0.00000	 225.0	 1	    1.08444	    1.00889;
	151	 1	 24.8	 -1.8	 0.0	 0.0	 1	    1.04445	    0.00000	 225.0	 1	    1.08889	    1.00000;
	152	 1	 0.0	 0.0	 0.0	 0.0	 1	    1.04666	    0.00000	 225.0	 1	    1.08444	    1.00889;
	153	 1	 0.0	 0.0	 0.0	 0.0	 1	    1.04666	    0.00000	 225.0	 1	    1.08444	    1.00889;
	154	 1	 0.0	 0.0	 0.0	 0.0	 1	    1.04666	    0.00000	 225.0	 1	    1.08444	    1.00889;
	155	 1	 0.0	 0.0	 0.0	 0.0	 1	    1.06579	    0.00000	 380.0	 1	    1.10263	    1.02895;
	156	 1	 155.3	 26.5	 0.0	 0.0	 1	    0.98889	    0.00000	 225.0	 1	    1.08889	    0.88889;
	157	 1	 0.0	 0.0	 0.0	 0.0	 1	    1.04883	    0.00000	 225.0	 1	    1.09766	    1.00000;
	158	 1	 0.0	 0.0	 0.0	 0.0	 1	    1.07895	    0.00000	 380.0	 1	    1.10526	    1.05263;
	159	 1	 21.5	 4.4	 0.0	 0.0	 1	    1.03778	    0.00000	 225.0	 1	    1.08889	    0.98667;
	160	 1	 26.2	 2.1	 0.0	 0.0	 1	    1.04445	    0.00000	 225.0	 1	    1.08889	    1.00000;
	161	 1	 0.0	 0.0	 0.0	 0.0	 1	    1.04444	    0.00000	 225.0	 1	    1.08444	    1.00444;
	162	 1	 0.0	 0.0	 0.0	 0.0	 1	    1.04444	    0.00000	 225.0	 1	    1.08444	    1.00444;
	163	 1	 0.0	 0.0	 0.0	 0.0	 1	    1.04444	    0.00000	 225.0	 1	    1.08444	    1.00444;
	164	 1	 55.3	 -11.4	 0.0	 0.0	 1	    1.04444	    0.00000	 225.0	 1	    1.08444	    1.00444;
	165	 1	 0.0	 0.0	 0.0	 0.0	 1	    1.01111	    0.00000	 225.0	 1	    1.08889	    0.93333;
	166	 1	 30.0	 12.3	 0.0	 0.0	 1	    1.03778	    0.00000	 225.0	 1	    1.08889	    0.98667;
	2019	 1	 0.0	 0.0	 0.0	 -64.0	 1	    1.15000	    0.00000	 20.0	 1	    1.40000	    0.90000;
	167	 1	 0.0	 0.0	 0.0	 0.0	 1	    1.04470	    0.00000	 225.0	 1	    1.08941	    1.00000;
	168	 1	 0.0	 0.0	 0.0	 0.0	 1	    1.07895	    0.00000	 380.0	 1	    1.10526	    1.05263;
	169	 2	 0.0	 0.0	 0.0	 0.0	 1	    1.00000	    0.00000	 225.0	 1	    1.10000	    0.90000;
	170	 1	 17.8	 2.6	 0.0	 0.0	 1	    1.02333	    0.00000	 150.0	 1	    1.08000	    0.96667;
	171	 1	 25.3	 -3.2	 0.0	 0.0	 1	    1.04666	    0.00000	 225.0	 1	    1.08889	    1.00444;
	172	 1	 -3.7	 -2.0	 0.0	 0.0	 1	    1.04666	    0.00000	 225.0	 1	    1.08889	    1.00444;
	173	 1	 37.3	 0.7	 0.0	 0.0	 1	    0.98889	    0.00000	 225.0	 1	    1.08889	    0.88889;
	181	 1	 107.9	 3.9	 0.0	 0.0	 1	    1.04445	    0.00000	 225.0	 1	    1.08889	    1.00000;
	182	 1	 29.5	 6.8	 0.0	 0.0	 1	    1.03778	    0.00000	 225.0	 1	    1.08889	    0.98667;
	183	 1	 0.0	 0.0	 0.0	 0.0	 1	    1.07237	    0.00000	 380.0	 1	    1.10526	    1.03947;
	184	 1	 0.0	 0.0	 0.0	 0.0	 1	    1.07237	    0.00000	 380.0	 1	    1.10526	    1.03947;
	185	 1	 0.0	 0.0	 0.0	 0.0	 1	    1.07237	    0.00000	 380.0	 1	    1.10526	    1.03947;
	186	 1	 0.0	 0.0	 0.0	 0.0	 1	    1.07237	    0.00000	 380.0	 1	    1.10526	    1.03947;
	187	 1	 28.1	 -10.0	 0.0	 0.0	 1	    1.00667	    0.00000	 225.0	 1	    1.08889	    0.92444;
	188	 1	 -2.0	 -1.1	 0.0	 0.0	 1	    1.03778	    0.00000	 225.0	 1	    1.08889	    0.98667;
	189	 1	 65.8	 19.1	 0.0	 0.0	 1	    1.04444	    0.00000	 225.0	 1	    1.08444	    1.00444;
	190	 1	 -2.3	 1.2	 0.0	 0.0	 1	    1.07237	    0.00000	 380.0	 1	    1.10263	    1.04211;
	191	 1	 -2.3	 1.4	 0.0	 0.0	 1	    1.07237	    0.00000	 380.0	 1	    1.10263	    1.04211;
	192	 1	 0.0	 0.0	 0.0	 0.0	 1	    1.04666	    0.00000	 225.0	 1	    1.08889	    1.00444;
	193	 1	 0.0	 0.0	 0.0	 0.0	 1	    1.03333	    0.00000	 225.0	 1	    1.08889	    0.97778;
	194	 1	 0.0	 0.0	 0.0	 0.0	 1	    1.03333	    0.00000	 225.0	 1	    1.08889	    0.97778;
	195	 1	 83.6	 -8.6	 0.0	 0.0	 1	    1.02889	    0.00000	 225.0	 1	    1.08889	    0.96889;
	196	 1	 0.0	 0.0	 0.0	 0.0	 1	    1.01111	    0.00000	 225.0	 1	    1.08889	    0.93333;
	197	 1	 0.0	 0.0	 0.0	 0.0	 1	    1.01111	    0.00000	 225.0	 1	    1.08889	    0.93333;
	198	 1	 57.5	 10.2	 0.0	 0.0	 1	    1.04444	    0.00000	 225.0	 1	    1.08444	    1.00444;
	199	 1	 177.4	 -31.4	 0.0	 0.0	 1	    1.04444	    0.00000	 225.0	 1	    1.08444	    1.00444;
	200	 1	 0.0	 0.0	 0.0	 0.0	 1	    1.03333	    0.00000	 225.0	 1	    1.08889	    0.97778;
	201	 1	 0.0	 0.0	 0.0	 0.0	 1	    1.04444	    0.00000	 225.0	 1	    1.08444	    1.00444;
	202	 1	 124.2	 -3.2	 0.0	 0.0	 1	    1.02000	    0.00000	 225.0	 1	    1.08889	    0.95111;
	203	 1	 35.3	 1.9	 0.0	 0.0	 1	    1.04666	    0.00000	 225.0	 1	    1.08889	    1.00444;
	204	 1	 51.6	 -4.0	 0.0	 0.0	 1	    1.03778	    0.00000	 225.0	 1	    1.08889	    0.98667;
	2086	 1	 0.0	 0.0	 0.0	 -64.0	 1	    1.10000	    0.00000	 20.0	 1	    1.40000	    0.80000;
	205	 1	 16.9	 -1.8	 0.0	 0.0	 1	    1.04666	    0.00000	 225.0	 1	    1.08444	    1.00889;
	206	 1	 0.0	 0.0	 0.0	 0.0	 1	    1.06579	    0.00000	 380.0	 1	    1.10263	    1.02895;
	207	 1	 38.6	 -0.7	 0.0	 0.0	 1	    1.04666	    0.00000	 225.0	 1	    1.08889	    1.00444;
	1829	 2	 0.0	 0.0	 0.0	 0.0	 1	    1.01429	    0.00000	 225.0	 1	    1.07859	    0.95000;
	208	 1	 0.0	 0.0	 0.0	 0.0	 1	    0.98889	    0.00000	 225.0	 1	    1.08889	    0.88889;
...
];

%% generator data
%	bus	Pg	Qg	Qmax	Qmin	Vg	mBase	status	Pmax	Pmin	Pc1	Pc2	Qc1min	Qc1max	Qc2min	Qc2max	ramp_agc	ramp_10	ramp_30	ramp_q	apf
mpc.gen = [
	1268	 44.5	 9.0	 27.0	 -9.0	 1.027	 100.0	 1	 45.0	 44.0	 0.0	 0.0	 0.0	 0.0	 0.0	 0.0	 0.0	 0.0	 0.0	 0.0	 0.0;
	1268	 44.5	 9.0	 27.0	 -9.0	 1.027	 100.0	 1	 45.0	 44.0	 0.0	 0.0	 0.0	 0.0	 0.0	 0.0	 0.0	 0.0	 0.0	 0.0	 0.0;
	1356	 13.2	 -2.5	 7.0	 -12.0	 1.046	 100.0	 1	 22.0	 4.4	 0.0	 0.0	 0.0	 0.0	 0.0	 0.0	 0.0	 0.0	 0.0	 0.0	 0.0;
	89	 15.0	 2.0	 13.0	 -9.0	 1.02	 100.0	 1	 25.0	 5.0	 0.0	 0.0	 0.0	 0.0	 0.0	 0.0	 0.0	 0.0	 0.0	 0.0	 0.0;
	125	 14.04	 -4.5	 8.0	 -17.0	 1.034	 100.0	 1	 23.4	 4.68	 0.0	 0.0	 0.0	 0.0	 0.0	 0.0	 0.0	 0.0	 0.0	 0.0	 0.0;
	908	 12.0	 1.95	 2.0	 1.9	 1.035	 100.0	 1	 20.0	 4.0	 0.0	 0.0	 0.0	 0.0	 0.0	 0.0	 0.0	 0.0	 0.0	 0.0	 0.0;
	817	 7.2	 0.95	 1.0	 0.9	 1.039	 100.0	 0	 12.0	 2.4	 0.0	 0.0	 0.0	 0.0	 0.0	 0.0	 0.0	 0.0	 0.0	 0.0	 0.0;
	817	 8.4	 0.95	 1.0	 0.9	 1.039	 100.0	 1	 14.0	 2.8	 0.0	 0.0	 0.0	 0.0	 0.0	 0.0	 0.0	 0.0	 0.0	 0.0	 0.0;
	817	 7.2	 0.95	 1.0	 0.9	 1.039	 100.0	 0	 12.0	 2.4	 0.0	 0.0	 0.0	 0.0	 0.0	 0.0	 0.0	 0.0	 0.0	 0.0	 0.0;
	1335	 18.0	 0.0	 10.0	 -10.0	 1.021	 100.0	 1	 30.0	 6.0	 0.0	 0.0	 0.0	 0.0	 0.0	 0.0	 0.0	 0.0	 0.0	 0.0	 0.0;
	396	 6.6	 3.0	 5.0	 1.0	 1.015	 100.0	 1	 11.0	 2.2	 0.0	 0.0	 0.0	 0.0	 0.0	 0.0	 0.0	 0.0	 0.0	 0.0	 0.0;
	396	 6.6	 3.0	 5.0	 1.0	 1.015	 100.0	 1	 11.0	 2.2	 0.0	 0.0	 0.0	 0.0	 0.0	 0.0	 0.0	 0.0	 0.0	 0.0	 0.0;
	975	 21.0	 0.0	 15.0	 -15.0	 1.05	 100.0	 1	 35.0	 7.0	 0.0	 0.0	 0.0	 0.0	 0.0	 0.0	 0.0	 0.0	 0.0	 0.0	 0.0;
	858	 33.24	 0.0	 0.0	 0.0	 1.048	 100.0	 1	 55.4	 11.08	 0.0	 0.0	 0.0	 0.0	 0.0	 0.0	 0.0	 0.0	 0.0	 0.0	 0.0;
	921	 25.2	 2.5	 25.0	 -20.0	 1.045	 100.0	 1	 42.0	 8.4	 0.0	 0.0	 0.0	 0.0	 0.0	 0.0	 0.0	 0.0	 0.0	 0.0	 0.0;
	921	 25.2	 2.5	 25.0	 -20.0	 1.045	 100.0	 1	 42.0	 8.4	 0.0	 0.0	 0.0	 0.0	 0.0	 0.0	 0.0	 0.0	 0.0	 0.0	 0.0;
	1255	 52.2	 0.87	 26.1	 -24.36	 1.046	 100.0	 1	 87.0	 17.4	 0.0	 0.0	 0.0	 0.0	 0.0	 0.0	 0.0	 0.0	 0.0	 0.0	 0.0;
	169	 4.98	 0.0	 8.3	 -8.3	 1.065	 100.0	 1	 8.3	 1.66	 0.0	 0.0	 0.0	 0.0	 0.0	 0.0	 0.0	 0.0	 0.0	 0.0	 0.0;
	448	 2.0	 0.0	 0.0	 0.0	 1.04	 100.0	 1	 4.0	 0.0	 0.0	 0.0	 0.0	 0.0	 0.0	 0.0	 0.0	 0.0	 0.0	 0.0	 0.0;
	241	 7.8	 0.0	 5.0	 -5.0	 1.011	 100.0	 1	 13.0	 2.6	 0.0	 0.0	 0.0	 0.0	 0.0	 0.0	 0.0	 0.0	 0.0	 0.0	 0.0;
	241	 7.8	 0.0	 5.0	 -5.0	 1.011	 100.0	 1	 13.0	 2.6	 0.0	 0.0	 0.0	 0.0	 0.0	 0.0	 0.0	 0.0	 0.0	 0.0	 0.0;
	241	 7.8	 0.0	 5.0	 -5.0	 1.011	 100.0	 1	 13.0	 2.6	 0.0	 0.0	 0.0	 0.0	 0.0	 0.0	 0.0	 0.0	 0.0	 0.0	 0.0;
	241	 7.8	 0.0	 5.0	 -5.0	 1.011	 100.0	 1	 13.0	 2.6	 0.0	 0.0	 0.0	 0.0	 0.0	 0.0	 0.0	 0.0	 0.0	 0.0	 0.0;
	270	 30.0	 9.0	 27.0	 -9.0	 1.029	 100.0	 1	 50.0	 10.0	 0.0	 0.0	 0.0	 0.0	 0.0	 0.0	 0.0	 0.0	 0.0	 0.0	 0.0;
	885	 4.8	 0.0	 0.0	 0.0	 1.029	 100.0	 1	 8.0	 1.6	 0.0	 0.0	 0.0	 0.0	 0.0	 0.0	 0.0	 0.0	 0.0	 0.0	 0.0;
	885	 4.8	 0.0	 0.0	 0.0	 1.029	 100.0	 1	 8.0	 1.6	 0.0	 0.0	 0.0	 0.0	 0.0	 0.0	 0.0	 0.0	 0.0	 0.0	 0.0;
	876	 32.4	 0.0	 0.0	 0.0	 1.04	 100.0	 1	 54.0	 10.8	 0.0	 0.0	 0.0	 0.0	 0.0	 0.0	 0.0	 0.0	 0.0	 0.0	 0.0;
	46	 18.0	 3.0	 10.0	 -4.0	 1.038	 100.0	 1	 30.0	 6.0	 0.0	 0.0	 0.0	 0.0	 0.0	 0.0	 0.0	 0.0	 0.0	 0.0	 0.0;
	803	 8.28	 -0.465	 4.63	 -5.56	 1.036	 100.0	 1	 13.8	 2.76	 0.0	 0.0	 0.0	 0.0	 0.0	 0.0	 0.0	 0.0	 0.0	 0.0	 0.0;
	356	 24.84	 0.415	 12.42	 -11.59	 1.047	 100.0	 1	 41.4	 8.28	 0.0	 0.0	 0.0	 0.0	 0.0	 0.0	 0.0	 0.0	 0.0	 0.0	 0.0;
	100	 78.0	 16.5	 59.0	 -26.0	 1.036	 100.0	 1	 130.0	 26.0	 0.0	 0.0	 0.0	 0.0	 0.0	 0.0	 0.0	 0.0	 0.0	 0.0	 0.0;
	707	 12.6	 0.0	 8.0	 -8.0	 1.05	 100.0	 1	 21.0	 4.2	 0.0	 0.0	 0.0	 0.0	 0.0	 0.0	 0.0	 0.0	 0.0	 0.0	 0.0;
	973	 -4.0	 0.0	 0.0	 0.0	 1.039	 100.0	 0	 0.0	 -8.0	 0.0	 0.0	 0.0	 0.0	 0.0	 0.0	 0.0	 0.0	 0.0	 0.0	 0.0;
	973	 31.8	 3.5	 17.0	 -10.0	 1.039	 100.0	 1	 53.0	 10.6	 0.0	 0.0	 0.0	 0.0	 0.0	 0.0	 0.0	 0.0	 0.0	 0.0	 0.0;
	1118	 33.0	 0.0	 0.0	 0.0	 1.03	 100.0	 1	 55.0	 11.0	 0.0	 0.0	 0.0	 0.0	 0.0	 0.0	 0.0	 0.0	 0.0	 0.0	 0.0;
	897	 16.2	 3.5	 10.0	 -3.0	 1.027	 100.0	 1	 27.0	 5.4	 0.0	 0.0	 0.0	 0.0	 0.0	 0.0	 0.0	 0.0	 0.0	 0.0	 0.0;
	897	 16.2	 3.5	 10.0	 -3.0	 1.027	 100.0	 1	 27.0	 5.4	 0.0	 0.0	 0.0	 0.0	 0.0	 0.0	 0.0	 0.0	 0.0	 0.0	 0.0;
	58	 3.6	 1.95	 2.0	 1.9	 1.037	 100.0	 0	 6.0	 1.2	 0.0	 0.0	 0.0	 0.0	 0.0	 0.0	 0.0	 0.0	 0.0	 0.0	 0.0;
	82	 15.18	 0.0	 0.0	 0.0	 1.025	 100.0	 1	 25.3	 5.06	 0.0	 0.0	 0.0	 0.0	 0.0	 0.0	 0.0	 0.0	 0.0	 0.0	 0.0;
	474	 31.2	 -1.5	 10.0	 -13.0	 1.036	 100.0	 1	 52.0	 10.4	 0.0	 0.0	 0.0	 0.0	 0.0	 0.0	 0.0	 0.0	 0.0	 0.0	 0.0;
	1221	 34.8	 0.0	 35.0	 -35.0	 1.056	 100.0	 1	 58.0	 11.6	 0.0	 0.0	 0.0	 0.0	 0.0	 0.0	 0.0	 0.0	 0.0	 0.0	 0.0;
	355	 37.2	 0.0	 40.0	 -40.0	 1.05	 100.0	 1	 62.0	 12.4	 0.0	 0.0	 0.0	 0.0	 0.0	 0.0	 0.0	 0.0	 0.0	 0.0	 0.0;
	471	 46.8	 0.5	 1.0	 0.0	 1.037	 100.0	 1	 78.0	 15.6	 0.0	 0.0	 0.0	 0.0	 0.0	 0.0	 0.0	 0.0	 0.0	 0.0	 0.0;
	1321	 6.6	 0.95	 1.0	 0.9	 1.039	 100.0	 1	 11.0	 2.2	 0.0	 0.0	 0.0	 0.0	 0.0	 0.0	 0.0	 0.0	 0.0	 0.0	 0.0;
	1321	 1.25	 0.0	 0.1	 -0.1	 1.039	 100.0	 1	 2.5	 0.0	 0.0	 0.0	 0.0	 0.0	 0.0	 0.0	 0.0	 0.0	 0.0	 0.0	 0.0;
	1829	 14.1	 0.0	 8.0	 -8.0	 1.022	 100.0	 1	 23.5	 4.7	 0.0	 0.0	 0.0	 0.0	 0.0	 0.0	 0.0	 0.0	 0.0	 0.0	 0.0;
	1005	 23.4	 0.0	 19.0	 -19.0	 1.02	 100.0	 1	 39.0	 7.8	 0.0	 0.0	 0.0	 0.0	 0.0	 0.0	 0.0	 0.0	 0.0	 0.0	 0.0;
	14	 16.56	 0.0	 0.0	 0.0	 1.029	 100.0	 1	 27.6	 5.52	 0.0	 0.0	 0.0	 0.0	 0.0	 0.0	 0.0	 0.0	 0.0	 0.0	 0.0;
	14	 14.4	 0.0	 0.0	 0.0	 1.029	 100.0	 1	 24.0	 4.8	 0.0	 0.0	 0.0	 0.0	 0.0	 0.0	 0.0	 0.0	 0.0	 0.0	 0.0;
	1628	 435.0	 -31.125	 155.3	 -217.55	 0.95	 100.0	 1	 670.0	 200.0	 0.0	 0.0	 0.0	 0.0	 0.0	 0.0	 0.0	 0.0	 0.0	 0.0	 0.0;
	1629	 420.0	 20.405	 231.39	 -190.58	 0.95	 100.0	 1	 700.0	 140.0	 0.0	 0.0	 0.0	 0.0	 0.0	 0.0	 0.0	 0.0	 0.0	 0.0	 0.0;
	1844	 16.2	 4.62	 24.62	 -15.38	 0.885	 100.0	 1	 27.0	 5.4	 0.0	 0.0	 0.0	 0.0	 0.0	 0.0	 0.0	 0.0	 0.0	 0.0	 0.0;
	1630	 51.6	 17.68	 43.86	 -8.5	 0.928	 100.0	 1	 86.0	 17.2	 0.0	 0.0	 0.0	 0.0	 0.0	 0.0	 0.0	 0.0	 0.0	 0.0	 0.0;
	1631	 29.4	 6.23	 22.19	 -9.73	 0.93	 100.0	 1	 49.0	 9.8	 0.0	 0.0	 0.0	 0.0	 0.0	 0.0	 0.0	 0.0	 0.0	 0.0	 0.0;
	1846	 19.2	 0.0	 8.36	 -8.36	 1.034	 100.0	 1	 32.0	 6.4	 0.0	 0.0	 0.0	 0.0	 0.0	 0.0	 0.0	 0.0	 0.0	 0.0	 0.0;
	1632	 19.2	 0.0	 8.36	 -8.36	 1.034	 100.0	 1	 32.0	 6.4	 0.0	 0.0	 0.0	 0.0	 0.0	 0.0	 0.0	 0.0	 0.0	 0.0	 0.0;
	1847	 19.2	 -0.21	 8.15	 -8.57	 1.034	 100.0	 1	 32.0	 6.4	 0.0	 0.0	 0.0	 0.0	 0.0	 0.0	 0.0	 0.0	 0.0	 0.0	 0.0;
	1848	 19.2	 -0.21	 8.15	 -8.57	 1.034	 100.0	 1	 32.0	 6.4	 0.0	 0.0	 0.0	 0.0	 0.0	 0.0	 0.0	 0.0	 0.0	 0.0	 0.0;
	1852	 55.2	 9.57	 54.57	 -35.43	 1.01	 100.0	 1	 92.0	 18.4	 0.0	 0.0	 0.0	 0.0	 0.0	 0.0	 0.0	 0.0	 0.0	 0.0	 0.0;
	1854	 55.2	 11.48	 56.48	 -33.52	 1.031	 100.0	 1	 92.0	 18.4	 0.0	 0.0	 0.0	 0.0	 0.0	 0.0	 0.0	 0.0	 0.0	 0.0	 0.0;
	1633	 600.075	 22.385	 421.39	 -376.62	 1.0	 100.0	 1	 945.08	 255.07	 0.0	 0.0	 0.0	 0.0	 0.0	 0.0	 0.0	 0.0	 0.0	 0.0	 0.0;
	1634	 633.045	 29.81	 428.83	 -369.21	 0.999	 100.0	 1	 978.04	 288.05	 0.0	 0.0	 0.0	 0.0	 0.0	 0.0	 0.0	 0.0	 0.0	 0.0	 0.0;
	1635	 616.08	 29.075	 428.07	 -369.92	 0.999	 100.0	 1	 976.08	 256.08	 0.0	 0.0	 0.0	 0.0	 0.0	 0.0	 0.0	 0.0	 0.0	 0.0	 0.0;
	1636	 598.075	 21.865	 420.86	 -377.13	 1.0	 100.0	 1	 943.08	 253.07	 0.0	 0.0	 0.0	 0.0	 0.0	 0.0	 0.0	 0.0	 0.0	 0.0	 0.0;
	1637	 204.0	 31.4	 153.03	 -90.23	 0.954	 100.0	 1	 252.0	 156.0	 0.0	 0.0	 0.0	 0.0	 0.0	 0.0	 0.0	 0.0	 0.0	 0.0	 0.0;
	1638	 202.0	 30.815	 152.44	 -90.81	 0.954	 100.0	 1	 250.0	 154.0	 0.0	 0.0	 0.0	 0.0	 0.0	 0.0	 0.0	 0.0	 0.0	 0.0	 0.0;
	1639	 202.0	 23.7	 105.68	 -58.28	 0.977	 100.0	 1	 250.0	 154.0	 0.0	 0.0	 0.0	 0.0	 0.0	 0.0	 0.0	 0.0	 0.0	 0.0	 0.0;
	1640	 213.5	 34.45	 228.81	 -159.91	 0.983	 100.0	 1	 305.0	 122.0	 0.0	 0.0	 0.0	 0.0	 0.0	 0.0	 0.0	 0.0	 0.0	 0.0	 0.0;
	1641	 122.0	 9.84	 94.32	 -74.64	 0.986	 100.0	 1	 155.0	 89.0	 0.0	 0.0	 0.0	 0.0	 0.0	 0.0	 0.0	 0.0	 0.0	 0.0	 0.0;
	1642	 34.8	 1.44	 21.65	 -18.77	 0.988	 100.0	 1	 58.0	 11.6	 0.0	 0.0	 0.0	 0.0	 0.0	 0.0	 0.0	 0.0	 0.0	 0.0	 0.0;
	1643	 34.8	 2.675	 16.01	 -10.66	 0.988	 100.0	 1	 58.0	 11.6	 0.0	 0.0	 0.0	 0.0	 0.0	 0.0	 0.0	 0.0	 0.0	 0.0	 0.0;
	1855	 34.8	 1.26	 21.47	 -18.95	 0.988	 100.0	 1	 58.0	 11.6	 0.0	 0.0	 0.0	 0.0	 0.0	 0.0	 0.0	 0.0	 0.0	 0.0	 0.0;
	1644	 34.8	 2.715	 16.05	 -10.62	 0.988	 100.0	 1	 58.0	 11.6	 0.0	 0.0	 0.0	 0.0	 0.0	 0.0	 0.0	 0.0	 0.0	 0.0	 0.0;
	1645	 34.8	 2.475	 15.81	 -10.86	 0.988	 100.0	 1	 58.0	 11.6	 0.0	 0.0	 0.0	 0.0	 0.0	 0.0	 0.0	 0.0	 0.0	 0.0	 0.0;
	1646	 198.0	 28.135	 146.45	 -90.18	 0.95	 100.0	 1	 263.0	 133.0	 0.0	 0.0	 0.0	 0.0	 0.0	 0.0	 0.0	 0.0	 0.0	 0.0	 0.0;
	1647	 26.975	 6.29	 50.67	 -38.09	 1.045	 100.0	 1	 44.96	 8.99	 0.0	 0.0	 0.0	 0.0	 0.0	 0.0	 0.0	 0.0	 0.0	 0.0	 0.0;
	1861	 19.2	 1.75	 19.75	 -16.25	 1.048	 100.0	 1	 32.0	 6.4	 0.0	 0.0	 0.0	 0.0	 0.0	 0.0	 0.0	 0.0	 0.0	 0.0	 0.0;
	1648	 601.29	 186.38	 530.99	 -158.23	 0.963	 100.0	 1	 936.29	 266.29	 0.0	 0.0	 0.0	 0.0	 0.0	 0.0	 0.0	 0.0	 0.0	 0.0	 0.0;
	1649	 607.82	 188.81	 533.69	 -156.07	 0.946	 100.0	 1	 942.82	 272.82	 0.0	 0.0	 0.0	 0.0	 0.0	 0.0	 0.0	 0.0	 0.0	 0.0	 0.0;
	1650	 599.28	 192.43	 537.68	 -152.82	 0.964	 100.0	 1	 924.28	 274.28	 0.0	 0.0	 0.0	 0.0	 0.0	 0.0	 0.0	 0.0	 0.0	 0.0	 0.0;
	1651	 597.8	 184.5	 529.89	 -160.89	 0.946	 100.0	 1	 922.8	 272.8	 0.0	 0.0	 0.0	 0.0	 0.0	 0.0	 0.0	 0.0	 0.0	 0.0	 0.0;
	1652	 813.0	 264.02	 681.04	 -153.0	 0.945	 100.0	 1	 1308.0	 318.0	 0.0	 0.0	 0.0	 0.0	 0.0	 0.0	 0.0	 0.0	 0.0	 0.0	 0.0;
	1862	 813.0	 264.015	 681.03	 -153.0	 0.948	 100.0	 1	 1308.0	 318.0	 0.0	 0.0	 0.0	 0.0	 0.0	 0.0	 0.0	 0.0	 0.0	 0.0	 0.0;
	1653	 21.0	 2.08	 6.08	 -1.92	 1.029	 100.0	 1	 35.0	 7.0	 0.0	 0.0	 0.0	 0.0	 0.0	 0.0	 0.0	 0.0	 0.0	 0.0	 0.0;
	1654	 21.0	 2.21	 6.21	 -1.79	 1.029	 100.0	 1	 35.0	 7.0	 0.0	 0.0	 0.0	 0.0	 0.0	 0.0	 0.0	 0.0	 0.0	 0.0	 0.0;
	1655	 21.0	 2.21	 6.21	 -1.79	 1.029	 100.0	 1	 35.0	 7.0	 0.0	 0.0	 0.0	 0.0	 0.0	 0.0	 0.0	 0.0	 0.0	 0.0	 0.0;
	1656	 21.0	 2.11	 6.11	 -1.89	 1.029	 100.0	 1	 35.0	 7.0	 0.0	 0.0	 0.0	 0.0	 0.0	 0.0	 0.0	 0.0	 0.0	 0.0	 0.0;
	1657	 21.0	 2.11	 6.11	 -1.89	 1.029	 100.0	 1	 35.0	 7.0	 0.0	 0.0	 0.0	 0.0	 0.0	 0.0	 0.0	 0.0	 0.0	 0.0	 0.0;
	1658	 21.0	 2.11	 6.11	 -1.89	 1.029	 100.0	 1	 35.0	 7.0	 0.0	 0.0	 0.0	 0.0	 0.0	 0.0	 0.0	 0.0	 0.0	 0.0	 0.0;
	1863	 22.18	 2.645	 18.45	 -13.16	 0.979	 100.0	 1	 36.97	 7.39	 0.0	 0.0	 0.0	 0.0	 0.0	 0.0	 0.0	 0.0	 0.0	 0.0	 0.0;
	1659	 22.18	 2.645	 18.45	 -13.16	 0.979	 100.0	 1	 36.97	 7.39	 0.0	 0.0	 0.0	 0.0	 0.0	 0.0	 0.0	 0.0	 0.0	 0.0	 0.0;
	1660	 22.18	 3.55	 18.45	 -11.35	 0.979	 100.0	 1	 36.97	 7.39	 0.0	 0.0	 0.0	 0.0	 0.0	 0.0	 0.0	 0.0	 0.0	 0.0	 0.0;
	1661	 22.18	 3.205	 18.11	 -11.7	 0.979	 100.0	 1	 36.97	 7.39	 0.0	 0.0	 0.0	 0.0	 0.0	 0.0	 0.0	 0.0	 0.0	 0.0	 0.0;
	1662	 22.18	 2.4	 18.21	 -13.41	 0.978	 100.0	 1	 36.97	 7.39	 0.0	 0.0	 0.0	 0.0	 0.0	 0.0	 0.0	 0.0	 0.0	 0.0	 0.0;
	1663	 22.18	 2.75	 18.55	 -13.05	 0.978	 100.0	 1	 36.97	 7.39	 0.0	 0.0	 0.0	 0.0	 0.0	 0.0	 0.0	 0.0	 0.0	 0.0	 0.0;
	1865	 12.0	 2.32	 12.32	 -7.68	 0.942	 100.0	 1	 20.0	 4.0	 0.0	 0.0	 0.0	 0.0	 0.0	 0.0	 0.0	 0.0	 0.0	 0.0	 0.0;
	1866	 18.59	 2.03	 17.85	 -13.79	 0.978	 100.0	 1	 30.98	 6.2	 0.0	 0.0	 0.0	 0.0	 0.0	 0.0	 0.0	 0.0	 0.0	 0.0	 0.0;
	1664	 18.59	 2.03	 17.85	 -13.79	 0.978	 100.0	 1	 30.98	 6.2	 0.0	 0.0	 0.0	 0.0	 0.0	 0.0	 0.0	 0.0	 0.0	 0.0	 0.0;
	1665	 18.59	 2.195	 18.01	 -13.62	 0.978	 100.0	 1	 30.98	 6.2	 0.0	 0.0	 0.0	 0.0	 0.0	 0.0	 0.0	 0.0	 0.0	 0.0	 0.0;
	1867	 18.59	 2.195	 18.01	 -13.62	 0.978	 100.0	 1	 30.98	 6.2	 0.0	 0.0	 0.0	 0.0	 0.0	 0.0	 0.0	 0.0	 0.0	 0.0	 0.0;
	1666	 18.59	 2.07	 17.89	 -13.75	 0.979	 100.0	 1	 30.98	 6.2	 0.0	 0.0	 0.0	 0.0	 0.0	 0.0	 0.0	 0.0	 0.0	 0.0	 0.0;
	1868	 18.59	 1.915	 17.74	 -13.91	 0.979	 100.0	 1	 30.98	 6.2	 0.0	 0.0	 0.0	 0.0	 0.0	 0.0	 0.0	 0.0	 0.0	 0.0	 0.0;
	1667	 833.5	 235.585	 656.06	 -184.89	 0.947	 100.0	 1	 1330.0	 337.0	 0.0	 0.0	 0.0	 0.0	 0.0	 0.0	 0.0	 0.0	 0.0	 0.0	 0.0;
	1668	 863.5	 236.51	 656.92	 -183.9	 0.952	 100.0	 1	 1360.0	 367.0	 0.0	 0.0	 0.0	 0.0	 0.0	 0.0	 0.0	 0.0	 0.0	 0.0	 0.0;
	1669	 863.5	 227.615	 648.03	 -192.8	 0.953	 100.0	 1	 1360.0	 367.0	 0.0	 0.0	 0.0	 0.0	 0.0	 0.0	 0.0	 0.0	 0.0	 0.0	 0.0;
	1670	 1.45	 88.775	 281.46	 -103.91	 0.916	 100.0	 1	 1.5	 1.4	 0.0	 0.0	 0.0	 0.0	 0.0	 0.0	 0.0	 0.0	 0.0	 0.0	 0.0;
	1873	 144.0	 24.03	 94.03	 -45.97	 1.003	 100.0	 1	 240.0	 48.0	 0.0	 0.0	 0.0	 0.0	 0.0	 0.0	 0.0	 0.0	 0.0	 0.0	 0.0;
	1874	 144.0	 25.11	 95.11	 -44.89	 1.003	 100.0	 1	 240.0	 48.0	 0.0	 0.0	 0.0	 0.0	 0.0	 0.0	 0.0	 0.0	 0.0	 0.0	 0.0;
	1671	 587.72	 208.7	 524.6	 -107.2	 0.95	 100.0	 1	 942.72	 232.72	 0.0	 0.0	 0.0	 0.0	 0.0	 0.0	 0.0	 0.0	 0.0	 0.0	 0.0;
	1673	 598.74	 206.28	 511.64	 -99.08	 0.95	 100.0	 1	 953.74	 243.74	 0.0	 0.0	 0.0	 0.0	 0.0	 0.0	 0.0	 0.0	 0.0	 0.0	 0.0;
	1674	 597.74	 228.045	 555.41	 -99.32	 0.949	 100.0	 1	 952.74	 242.74	 0.0	 0.0	 0.0	 0.0	 0.0	 0.0	 0.0	 0.0	 0.0	 0.0	 0.0;
	1675	 953.0	 277.96	 682.28	 -126.36	 0.944	 100.0	 1	 1503.0	 403.0	 0.0	 0.0	 0.0	 0.0	 0.0	 0.0	 0.0	 0.0	 0.0	 0.0	 0.0;
	1676	 953.0	 282.755	 687.17	 -121.66	 0.95	 100.0	 1	 1503.0	 403.0	 0.0	 0.0	 0.0	 0.0	 0.0	 0.0	 0.0	 0.0	 0.0	 0.0	 0.0;
	1875	 948.0	 28.58	 409.45	 -352.29	 0.973	 100.0	 1	 1498.0	 398.0	 0.0	 0.0	 0.0	 0.0	 0.0	 0.0	 0.0	 0.0	 0.0	 0.0	 0.0;
	1677	 948.0	 28.545	 409.42	 -352.33	 0.971	 100.0	 1	 1498.0	 398.0	 0.0	 0.0	 0.0	 0.0	 0.0	 0.0	 0.0	 0.0	 0.0	 0.0	 0.0;
	2022	 45.0	 6.72	 51.88	 -38.44	 1.077	 100.0	 1	 75.0	 15.0	 0.0	 0.0	 0.0	 0.0	 0.0	 0.0	 0.0	 0.0	 0.0	 0.0	 0.0;
	1876	 45.0	 6.72	 51.88	 -38.44	 1.077	 100.0	 1	 75.0	 15.0	 0.0	 0.0	 0.0	 0.0	 0.0	 0.0	 0.0	 0.0	 0.0	 0.0	 0.0;
	1877	 45.0	 6.72	 51.88	 -38.44	 1.077	 100.0	 1	 75.0	 15.0	 0.0	 0.0	 0.0	 0.0	 0.0	 0.0	 0.0	 0.0	 0.0	 0.0	 0.0;
	1878	 45.0	 6.72	 51.88	 -38.44	 1.077	 100.0	 1	 75.0	 15.0	 0.0	 0.0	 0.0	 0.0	 0.0	 0.0	 0.0	 0.0	 0.0	 0.0	 0.0;
	1678	 51.75	 21.36	 104.12	 -61.4	 0.957	 100.0	 1	 95.0	 8.5	 0.0	 0.0	 0.0	 0.0	 0.0	 0.0	 0.0	 0.0	 0.0	 0.0	 0.0;
	1679	 51.75	 21.18	 103.94	 -61.58	 0.957	 100.0	 1	 95.0	 8.5	 0.0	 0.0	 0.0	 0.0	 0.0	 0.0	 0.0	 0.0	 0.0	 0.0	 0.0;
	1680	 76.2	 38.01	 86.67	 -10.65	 0.961	 100.0	 1	 148.2	 4.2	 0.0	 0.0	 0.0	 0.0	 0.0	 0.0	 0.0	 0.0	 0.0	 0.0	 0.0;
	1681	 432.5	 80.525	 220.22	 -59.17	 0.95	 100.0	 1	 685.0	 180.0	 0.0	 0.0	 0.0	 0.0	 0.0	 0.0	 0.0	 0.0	 0.0	 0.0	 0.0;
	1682	 460.0	 82.52	 330.28	 -165.24	 0.928	 100.0	 1	 610.0	 310.0	 0.0	 0.0	 0.0	 0.0	 0.0	 0.0	 0.0	 0.0	 0.0	 0.0	 0.0;
	1683	 460.0	 52.92	 297.67	 -191.83	 0.933	 100.0	 1	 610.0	 310.0	 0.0	 0.0	 0.0	 0.0	 0.0	 0.0	 0.0	 0.0	 0.0	 0.0	 0.0;
	1684	 452.5	 -19.415	 254.82	 -293.65	 0.954	 100.0	 1	 700.0	 205.0	 0.0	 0.0	 0.0	 0.0	 0.0	 0.0	 0.0	 0.0	 0.0	 0.0	 0.0;
	1881	 30.0	 0.9	 15.6	 -13.8	 0.957	 100.0	 1	 50.0	 10.0	 0.0	 0.0	 0.0	 0.0	 0.0	 0.0	 0.0	 0.0	 0.0	 0.0	 0.0;
	1882	 30.0	 0.5	 15.2	 -14.2	 0.957	 100.0	 1	 50.0	 10.0	 0.0	 0.0	 0.0	 0.0	 0.0	 0.0	 0.0	 0.0	 0.0	 0.0	 0.0;
	1685	 30.0	 1.105	 15.81	 -13.6	 0.957	 100.0	 1	 50.0	 10.0	 0.0	 0.0	 0.0	 0.0	 0.0	 0.0	 0.0	 0.0	 0.0	 0.0	 0.0;
	1883	 30.0	 1.105	 15.81	 -13.6	 0.957	 100.0	 1	 50.0	 10.0	 0.0	 0.0	 0.0	 0.0	 0.0	 0.0	 0.0	 0.0	 0.0	 0.0	 0.0;
	1884	 30.0	 1.105	 15.81	 -13.6	 0.957	 100.0	 1	 50.0	 10.0	 0.0	 0.0	 0.0	 0.0	 0.0	 0.0	 0.0	 0.0	 0.0	 0.0	 0.0;
	1885	 30.0	 0.9	 15.6	 -13.8	 0.957	 100.0	 1	 50.0	 10.0	 0.0	 0.0	 0.0	 0.0	 0.0	 0.0	 0.0	 0.0	 0.0	 0.0	 0.0;
	1686	 640.0	 221.385	 532.91	 -90.14	 0.972	 100.0	 1	 1000.0	 280.0	 0.0	 0.0	 0.0	 0.0	 0.0	 0.0	 0.0	 0.0	 0.0	 0.0	 0.0;
	1687	 640.0	 223.92	 535.45	 -87.61	 0.973	 100.0	 1	 1000.0	 280.0	 0.0	 0.0	 0.0	 0.0	 0.0	 0.0	 0.0	 0.0	 0.0	 0.0	 0.0;
	1688	 640.0	 239.705	 567.71	 -88.3	 0.974	 100.0	 1	 1000.0	 280.0	 0.0	 0.0	 0.0	 0.0	 0.0	 0.0	 0.0	 0.0	 0.0	 0.0	 0.0;
	1689	 605.0	 231.155	 559.16	 -96.85	 0.964	 100.0	 0	 930.0	 280.0	 0.0	 0.0	 0.0	 0.0	 0.0	 0.0	 0.0	 0.0	 0.0	 0.0	 0.0;
	1888	 34.2	 0.0	 17.35	 -17.35	 0.983	 100.0	 1	 57.0	 11.4	 0.0	 0.0	 0.0	 0.0	 0.0	 0.0	 0.0	 0.0	 0.0	 0.0	 0.0;
	1690	 345.0	 32.025	 219.77	 -155.72	 0.922	 100.0	 1	 451.0	 239.0	 0.0	 0.0	 0.0	 0.0	 0.0	 0.0	 0.0	 0.0	 0.0	 0.0	 0.0;
	1691	 42.0	 20.31	 51.25	 -10.63	 0.95	 100.0	 1	 63.0	 21.0	 0.0	 0.0	 0.0	 0.0	 0.0	 0.0	 0.0	 0.0	 0.0	 0.0	 0.0;
	1692	 341.3	 37.96	 258.1	 -182.18	 0.99	 100.0	 1	 433.8	 248.8	 0.0	 0.0	 0.0	 0.0	 0.0	 0.0	 0.0	 0.0	 0.0	 0.0	 0.0;
	1693	 124.99	 13.48	 71.21	 -44.25	 0.95	 100.0	 1	 168.17	 81.81	 0.0	 0.0	 0.0	 0.0	 0.0	 0.0	 0.0	 0.0	 0.0	 0.0	 0.0;
	1694	 125.44	 17.825	 73.34	 -37.69	 0.95	 100.0	 1	 168.6	 82.28	 0.0	 0.0	 0.0	 0.0	 0.0	 0.0	 0.0	 0.0	 0.0	 0.0	 0.0;
	1695	 151.06	 34.915	 113.53	 -43.7	 0.95	 100.0	 1	 248.21	 53.91	 0.0	 0.0	 0.0	 0.0	 0.0	 0.0	 0.0	 0.0	 0.0	 0.0	 0.0;
	1696	 141.03	 20.78	 100.92	 -59.36	 0.95	 100.0	 1	 238.09	 43.97	 0.0	 0.0	 0.0	 0.0	 0.0	 0.0	 0.0	 0.0	 0.0	 0.0	 0.0;
	1697	 574.69	 218.265	 525.14	 -88.61	 0.95	 100.0	 1	 919.69	 229.69	 0.0	 0.0	 0.0	 0.0	 0.0	 0.0	 0.0	 0.0	 0.0	 0.0	 0.0;
	1698	 574.69	 218.265	 525.14	 -88.61	 0.95	 100.0	 1	 919.69	 229.69	 0.0	 0.0	 0.0	 0.0	 0.0	 0.0	 0.0	 0.0	 0.0	 0.0	 0.0;
	1699	 581.69	 219.89	 526.77	 -86.99	 0.95	 100.0	 1	 926.69	 236.69	 0.0	 0.0	 0.0	 0.0	 0.0	 0.0	 0.0	 0.0	 0.0	 0.0	 0.0;
	1700	 596.69	 223.405	 530.29	 -83.48	 0.95	 100.0	 1	 941.69	 251.69	 0.0	 0.0	 0.0	 0.0	 0.0	 0.0	 0.0	 0.0	 0.0	 0.0	 0.0;
	1701	 19.2	 0.32	 10.32	 -9.68	 0.96	 100.0	 1	 32.0	 6.4	 0.0	 0.0	 0.0	 0.0	 0.0	 0.0	 0.0	 0.0	 0.0	 0.0	 0.0;
	1702	 23.93	 0.775	 19.22	 -17.67	 0.982	 100.0	 1	 39.88	 7.98	 0.0	 0.0	 0.0	 0.0	 0.0	 0.0	 0.0	 0.0	 0.0	 0.0	 0.0;
	1703	 23.93	 0.8	 19.34	 -17.74	 0.982	 100.0	 1	 39.88	 7.98	 0.0	 0.0	 0.0	 0.0	 0.0	 0.0	 0.0	 0.0	 0.0	 0.0	 0.0;
	1889	 23.93	 0.79	 19.24	 -17.66	 0.982	 100.0	 1	 39.88	 7.98	 0.0	 0.0	 0.0	 0.0	 0.0	 0.0	 0.0	 0.0	 0.0	 0.0	 0.0;
	1704	 860.0	 0.765	 398.39	 -396.86	 0.988	 100.0	 1	 1380.0	 340.0	 0.0	 0.0	 0.0	 0.0	 0.0	 0.0	 0.0	 0.0	 0.0	 0.0	 0.0;
	1705	 860.0	 -26.54	 371.08	 -424.16	 0.985	 100.0	 1	 1380.0	 340.0	 0.0	 0.0	 0.0	 0.0	 0.0	 0.0	 0.0	 0.0	 0.0	 0.0	 0.0;
	1890	 14.4	 1.39	 5.35	 -2.57	 0.964	 100.0	 1	 24.0	 4.8	 0.0	 0.0	 0.0	 0.0	 0.0	 0.0	 0.0	 0.0	 0.0	 0.0	 0.0;
	1891	 14.4	 1.525	 5.48	 -2.43	 0.964	 100.0	 1	 24.0	 4.8	 0.0	 0.0	 0.0	 0.0	 0.0	 0.0	 0.0	 0.0	 0.0	 0.0	 0.0;
	1892	 14.4	 1.035	 5.0	 -2.93	 0.964	 100.0	 1	 24.0	 4.8	 0.0	 0.0	 0.0	 0.0	 0.0	 0.0	 0.0	 0.0	 0.0	 0.0	 0.0;
	1706	 14.4	 1.33	 5.29	 -2.63	 0.962	 100.0	 1	 24.0	 4.8	 0.0	 0.0	 0.0	 0.0	 0.0	 0.0	 0.0	 0.0	 0.0	 0.0	 0.0;
	1707	 14.395	 2.51	 10.0	 -4.98	 0.975	 100.0	 1	 23.99	 4.8	 0.0	 0.0	 0.0	 0.0	 0.0	 0.0	 0.0	 0.0	 0.0	 0.0	 0.0;
	2026	 14.395	 0.735	 8.26	 -6.79	 0.976	 100.0	 1	 23.99	 4.8	 0.0	 0.0	 0.0	 0.0	 0.0	 0.0	 0.0	 0.0	 0.0	 0.0	 0.0;
	1898	 14.395	 2.685	 10.17	 -4.8	 0.976	 100.0	 1	 23.99	 4.8	 0.0	 0.0	 0.0	 0.0	 0.0	 0.0	 0.0	 0.0	 0.0	 0.0	 0.0;
	1708	 14.395	 1.805	 1.81	 1.8	 0.984	 100.0	 1	 23.99	 4.8	 0.0	 0.0	 0.0	 0.0	 0.0	 0.0	 0.0	 0.0	 0.0	 0.0	 0.0;
	1709	 14.395	 2.675	 10.16	 -4.81	 0.975	 100.0	 1	 23.99	 4.8	 0.0	 0.0	 0.0	 0.0	 0.0	 0.0	 0.0	 0.0	 0.0	 0.0	 0.0;
	1710	 17.39	 2.34	 12.23	 -7.55	 0.984	 100.0	 1	 28.98	 5.8	 0.0	 0.0	 0.0	 0.0	 0.0	 0.0	 0.0	 0.0	 0.0	 0.0	 0.0;
	1711	 17.39	 2.425	 12.31	 -7.46	 0.984	 100.0	 1	 28.98	 5.8	 0.0	 0.0	 0.0	 0.0	 0.0	 0.0	 0.0	 0.0	 0.0	 0.0	 0.0;
	1712	 798.0	 87.935	 615.09	 -439.22	 0.981	 100.0	 1	 1308.0	 288.0	 0.0	 0.0	 0.0	 0.0	 0.0	 0.0	 0.0	 0.0	 0.0	 0.0	 0.0;
	1713	 798.0	 87.48	 614.63	 -439.67	 0.98	 100.0	 1	 1308.0	 288.0	 0.0	 0.0	 0.0	 0.0	 0.0	 0.0	 0.0	 0.0	 0.0	 0.0	 0.0;
	1714	 273.76	 85.9	 255.9	 -84.1	 0.95	 100.0	 1	 458.26	 89.26	 0.0	 0.0	 0.0	 0.0	 0.0	 0.0	 0.0	 0.0	 0.0	 0.0	 0.0;
	1715	 592.0	 213.325	 524.88	 -98.23	 0.95	 100.0	 1	 947.0	 237.0	 0.0	 0.0	 0.0	 0.0	 0.0	 0.0	 0.0	 0.0	 0.0	 0.0	 0.0;
	1716	 607.0	 216.68	 528.27	 -94.91	 0.95	 100.0	 1	 947.0	 267.0	 0.0	 0.0	 0.0	 0.0	 0.0	 0.0	 0.0	 0.0	 0.0	 0.0	 0.0;
	1717	 592.0	 217.915	 529.5	 -93.67	 0.945	 100.0	 1	 947.0	 237.0	 0.0	 0.0	 0.0	 0.0	 0.0	 0.0	 0.0	 0.0	 0.0	 0.0	 0.0;
	1718	 592.0	 217.03	 528.59	 -94.53	 0.948	 100.0	 1	 947.0	 237.0	 0.0	 0.0	 0.0	 0.0	 0.0	 0.0	 0.0	 0.0	 0.0	 0.0	 0.0;
	1719	 592.0	 217.94	 529.53	 -93.65	 0.95	 100.0	 1	 947.0	 237.0	 0.0	 0.0	 0.0	 0.0	 0.0	 0.0	 0.0	 0.0	 0.0	 0.0	 0.0;
	1720	 592.0	 192.575	 504.13	 -118.98	 0.95	 100.0	 1	 947.0	 237.0	 0.0	 0.0	 0.0	 0.0	 0.0	 0.0	 0.0	 0.0	 0.0	 0.0	 0.0;
	1721	 182.5	 33.75	 104.81	 -37.31	 0.95	 100.0	 1	 240.0	 125.0	 0.0	 0.0	 0.0	 0.0	 0.0	 0.0	 0.0	 0.0	 0.0	 0.0	 0.0;
	1906	 101.64	 -3.68	 69.06	 -76.42	 0.997	 100.0	 1	 169.4	 33.88	 0.0	 0.0	 0.0	 0.0	 0.0	 0.0	 0.0	 0.0	 0.0	 0.0	 0.0;
	1907	 101.64	 -3.71	 69.08	 -76.5	 0.997	 100.0	 1	 169.4	 33.88	 0.0	 0.0	 0.0	 0.0	 0.0	 0.0	 0.0	 0.0	 0.0	 0.0	 0.0;
	1908	 101.64	 -3.785	 68.92	 -76.49	 0.996	 100.0	 1	 169.4	 33.88	 0.0	 0.0	 0.0	 0.0	 0.0	 0.0	 0.0	 0.0	 0.0	 0.0	 0.0;
	1909	 101.64	 -3.86	 68.97	 -76.69	 0.996	 100.0	 1	 169.4	 33.88	 0.0	 0.0	 0.0	 0.0	 0.0	 0.0	 0.0	 0.0	 0.0	 0.0	 0.0;
	1910	 101.64	 -3.74	 69.1	 -76.58	 0.997	 100.0	 1	 169.4	 33.88	 0.0	 0.0	 0.0	 0.0	 0.0	 0.0	 0.0	 0.0	 0.0	 0.0	 0.0;
	1911	 101.64	 -3.72	 69.1	 -76.54	 0.997	 100.0	 1	 169.4	 33.88	 0.0	 0.0	 0.0	 0.0	 0.0	 0.0	 0.0	 0.0	 0.0	 0.0	 0.0;
	1912	 101.64	 -4.09	 68.67	 -76.85	 0.996	 100.0	 1	 169.4	 33.88	 0.0	 0.0	 0.0	 0.0	 0.0	 0.0	 0.0	 0.0	 0.0	 0.0	 0.0;
	1913	 101.64	 -4.115	 68.69	 -76.92	 0.996	 100.0	 1	 169.4	 33.88	 0.0	 0.0	 0.0	 0.0	 0.0	 0.0	 0.0	 0.0	 0.0	 0.0	 0.0;
	1722	 336.8	 72.9	 272.9	 -127.1	 0.95	 100.0	 1	 456.8	 216.8	 0.0	 0.0	 0.0	 0.0	 0.0	 0.0	 0.0	 0.0	 0.0	 0.0	 0.0;
	1723	 195.0	 39.71	 159.71	 -80.29	 0.969	 100.0	 1	 260.0	 130.0	 0.0	 0.0	 0.0	 0.0	 0.0	 0.0	 0.0	 0.0	 0.0	 0.0	 0.0;
	1724	 417.5	 4.125	 198.66	 -190.41	 0.967	 100.0	 0	 585.0	 250.0	 0.0	 0.0	 0.0	 0.0	 0.0	 0.0	 0.0	 0.0	 0.0	 0.0	 0.0;
	1725	 417.5	 4.815	 199.31	 -189.68	 0.951	 100.0	 1	 585.0	 250.0	 0.0	 0.0	 0.0	 0.0	 0.0	 0.0	 0.0	 0.0	 0.0	 0.0	 0.0;
	1919	 11.99	 0.745	 20.64	 -19.15	 1.027	 100.0	 1	 19.98	 4.0	 0.0	 0.0	 0.0	 0.0	 0.0	 0.0	 0.0	 0.0	 0.0	 0.0	 0.0;
	1920	 14.39	 0.525	 20.43	 -19.38	 1.026	 100.0	 1	 23.98	 4.8	 0.0	 0.0	 0.0	 0.0	 0.0	 0.0	 0.0	 0.0	 0.0	 0.0	 0.0;
	1921	 14.39	 1.17	 21.0	 -18.66	 1.029	 100.0	 1	 23.98	 4.8	 0.0	 0.0	 0.0	 0.0	 0.0	 0.0	 0.0	 0.0	 0.0	 0.0	 0.0;
	1922	 14.39	 0.865	 20.73	 -19.0	 1.029	 100.0	 1	 23.98	 4.8	 0.0	 0.0	 0.0	 0.0	 0.0	 0.0	 0.0	 0.0	 0.0	 0.0	 0.0;
	1923	 14.39	 1.445	 21.26	 -18.37	 1.029	 100.0	 1	 23.98	 4.8	 0.0	 0.0	 0.0	 0.0	 0.0	 0.0	 0.0	 0.0	 0.0	 0.0	 0.0;
	1924	 14.39	 1.445	 21.26	 -18.37	 1.029	 100.0	 1	 23.98	 4.8	 0.0	 0.0	 0.0	 0.0	 0.0	 0.0	 0.0	 0.0	 0.0	 0.0	 0.0;
	1726	 21.0	 0.48	 9.31	 -8.35	 0.979	 100.0	 1	 35.0	 7.0	 0.0	 0.0	 0.0	 0.0	 0.0	 0.0	 0.0	 0.0	 0.0	 0.0	 0.0;
	1727	 21.0	 0.29	 9.12	 -8.54	 0.979	 100.0	 1	 35.0	 7.0	 0.0	 0.0	 0.0	 0.0	 0.0	 0.0	 0.0	 0.0	 0.0	 0.0	 0.0;
	1728	 21.0	 -1.465	 10.16	 -13.09	 0.978	 100.0	 1	 35.0	 7.0	 0.0	 0.0	 0.0	 0.0	 0.0	 0.0	 0.0	 0.0	 0.0	 0.0	 0.0;
	1928	 21.0	 0.48	 9.31	 -8.35	 0.979	 100.0	 1	 35.0	 7.0	 0.0	 0.0	 0.0	 0.0	 0.0	 0.0	 0.0	 0.0	 0.0	 0.0	 0.0;
	1729	 177.5	 -20.12	 104.52	 -144.76	 0.943	 100.0	 1	 235.0	 120.0	 0.0	 0.0	 0.0	 0.0	 0.0	 0.0	 0.0	 0.0	 0.0	 0.0	 0.0;
	1931	 43.8	 5.56	 47.31	 -36.19	 1.024	 100.0	 1	 73.0	 14.6	 0.0	 0.0	 0.0	 0.0	 0.0	 0.0	 0.0	 0.0	 0.0	 0.0	 0.0;
	1932	 41.4	 9.295	 51.14	 -32.55	 1.033	 100.0	 1	 69.0	 13.8	 0.0	 0.0	 0.0	 0.0	 0.0	 0.0	 0.0	 0.0	 0.0	 0.0	 0.0;
...
];

%% generator cost data
%	2	startup	shutdown	n	c(n-1)	...	c0
mpc.gencost = [
	2	 0.0	 0.0	 3	   0.000000	  48.342933	   0.000000;
	2	 0.0	 0.0	 3	   0.000000	 115.868312	   0.000000;
	2	 0.0	 0.0	 3	   0.000000	 157.305364	   0.000000;
	2	 0.0	 0.0	 3	   0.000000	 122.584188	   0.000000;
	2	 0.0	 0.0	 3	   0.000000	 132.638651	   0.000000;
	2	 0.0	 0.0	 3	   0.000000	  48.628057	   0.000000;
	2	 0.0	 0.0	 3	   0.000000	  59.685308	   0.000000;
	2	 0.0	 0.0	 3	   0.000000	  28.136163	   0.000000;
	2	 0.0	 0.0	 3	   0.000000	  34.895979	   0.000000;
	2	 0.0	 0.0	 3	   0.000000	 116.072852	   0.000000;
	2	 0.0	 0.0	 3	   0.000000	  24.203392	   0.000000;
	2	 0.0	 0.0	 3	   0.000000	 131.424931	   0.000000;
	2	 0.0	 0.0	 3	   0.000000	  39.145571	   0.000000;
	2	 0.0	 0.0	 3	   0.000000	  42.822472	   0.000000;
	2	 0.0	 0.0	 3	   0.000000	  53.346162	   0.000000;
	2	 0.0	 0.0	 3	   0.000000	  36.132785	   0.000000;
	2	 0.0	 0.0	 3	   0.000000	  55.778363	   0.000000;
	2	 0.0	 0.0	 3	   0.000000	  34.956177	   0.000000;
	2	 0.0	 0.0	 3	   0.000000	  42.959921	   0.000000;
	2	 0.0	 0.0	 3	   0.000000	  42.841005	   0.000000;
	2	 0.0	 0.0	 3	   0.000000	  56.720269	   0.000000;
	2	 0.0	 0.0	 3	   0.000000	  43.974691	   0.000000;
	2	 0.0	 0.0	 3	   0.000000	  43.598092	   0.000000;
	2	 0.0	 0.0	 3	   0.000000	  43.457280	   0.000000;
	2	 0.0	 0.0	 3	   0.000000	  42.948470	   0.000000;
	2	 0.0	 0.0	 3	   0.000000	  15.508115	   0.000000;
	2	 0.0	 0.0	 3	   0.000000	  47.141183	   0.000000;
	2	 0.0	 0.0	 3	   0.000000	 132.019044	   0.000000;
	2	 0.0	 0.0	 3	   0.000000	  55.283215	   0.000000;
	2	 0.0	 0.0	 3	   0.000000	  53.860753	   0.000000;
	2	 0.0	 0.0	 3	   0.000000	  50.210630	   0.000000;
	2	 0.0	 0.0	 3	   0.000000	  42.127514	   0.000000;
	2	 0.0	 0.0	 3	   0.000000	   0.000000	   0.000000;
	2	 0.0	 0.0	 3	   0.000000	  46.076231	   0.000000;
	2	 0.0	 0.0	 3	   0.000000	  55.361005	   0.000000;
	2	 0.0	 0.0	 3	   0.000000	 151.498718	   0.000000;
	2	 0.0	 0.0	 3	   0.000000	  37.864070	   0.000000;
	2	 0.0	 0.0	 3	   0.000000	  44.808080	   0.000000;
	2	 0.0	 0.0	 3	   0.000000	  52.484652	   0.000000;
	2	 0.0	 0.0	 3	   0.000000	  47.270631	   0.000000;
	2	 0.0	 0.0	 3	   0.000000	  90.228542	   0.000000;
	2	 0.0	 0.0	 3	   0.000000	  44.135802	   0.000000;
	2	 0.0	 0.0	 3	   0.000000	  46.226980	   0.000000;
	2	 0.0	 0.0	 3	   0.000000	  53.882513	   0.000000;
	2	 0.0	 0.0	 3	   0.000000	 123.229274	   0.000000;
	2	 0.0	 0.0	 3	   0.000000	  28.583008	   0.000000;
	2	 0.0	 0.0	 3	   0.000000	 148.964145	   0.000000;
	2	 0.0	 0.0	 3	   0.000000	 142.867042	   0.000000;
	2	 0.0	 0.0	 3	   0.000000	 161.522814	   0.000000;
	2	 0.0	 0.0	 3	   0.000000	   7.184134	   0.000000;
	2	 0.0	 0.0	 3	   0.000000	 124.235886	   0.000000;
	2	 0.0	 0.0	 3	   0.000000	  41.783687	   0.000000;
	2	 0.0	 0.0	 3	   0.000000	  43.951227	   0.000000;
	2	 0.0	 0.0	 3	   0.000000	  47.423218	   0.000000;
	2	 0.0	 0.0	 3	   0.000000	 148.572294	   0.000000;
	2	 0.0	 0.0	 3	   0.000000	 153.608405	   0.000000;
	2	 0.0	 0.0	 3	   0.000000	 118.578826	   0.000000;
	2	 0.0	 0.0	 3	   0.000000	  73.115368	   0.000000;
	2	 0.0	 0.0	 3	   0.000000	  55.416541	   0.000000;
	2	 0.0	 0.0	 3	   0.000000	  53.341821	   0.000000;
	2	 0.0	 0.0	 3	   0.000000	   6.938591	   0.000000;
	2	 0.0	 0.0	 3	   0.000000	  25.572840	   0.000000;
	2	 0.0	 0.0	 3	   0.000000	  30.760276	   0.000000;
	2	 0.0	 0.0	 3	   0.000000	  31.503496	   0.000000;
	2	 0.0	 0.0	 3	   0.000000	  44.944860	   0.000000;
	2	 0.0	 0.0	 3	   0.000000	  43.699523	   0.000000;
	2	 0.0	 0.0	 3	   0.000000	  41.263969	   0.000000;
	2	 0.0	 0.0	 3	   0.000000	  33.569643	   0.000000;
	2	 0.0	 0.0	 3	   0.000000	  60.338371	   0.000000;
	2	 0.0	 0.0	 3	   0.000000	 100.569199	   0.000000;
	2	 0.0	 0.0	 3	   0.000000	 138.462155	   0.000000;
	2	 0.0	 0.0	 3	   0.000000	 116.489130	   0.000000;
	2	 0.0	 0.0	 3	   0.000000	  30.913139	   0.000000;
	2	 0.0	 0.0	 3	   0.000000	  33.775588	   0.000000;
	2	 0.0	 0.0	 3	   0.000000	  55.193362	   0.000000;
	2	 0.0	 0.0	 3	   0.000000	  54.194112	   0.000000;
	2	 0.0	 0.0	 3	   0.000000	 123.414676	   0.000000;
	2	 0.0	 0.0	 3	   0.000000	  25.869870	   0.000000;
	2	 0.0	 0.0	 3	   0.000000	  19.353243	   0.000000;
	2	 0.0	 0.0	 3	   0.000000	  28.911176	   0.000000;
	2	 0.0	 0.0	 3	   0.000000	  17.071715	   0.000000;
	2	 0.0	 0.0	 3	   0.000000	   6.288065	   0.000000;
	2	 0.0	 0.0	 3	   0.000000	  20.910011	   0.000000;
	2	 0.0	 0.0	 3	   0.000000	 128.740087	   0.000000;
	2	 0.0	 0.0	 3	   0.000000	 143.639276	   0.000000;
	2	 0.0	 0.0	 3	   0.000000	  50.129936	   0.000000;
	2	 0.0	 0.0	 3	   0.000000	 117.218331	   0.000000;
	2	 0.0	 0.0	 3	   0.000000	  42.187865	   0.000000;
	2	 0.0	 0.0	 3	   0.000000	  63.983943	   0.000000;
	2	 0.0	 0.0	 3	   0.000000	  47.257148	   0.000000;
	2	 0.0	 0.0	 3	   0.000000	 110.618634	   0.000000;
	2	 0.0	 0.0	 3	   0.000000	  63.067391	   0.000000;
	2	 0.0	 0.0	 3	   0.000000	  42.973481	   0.000000;
	2	 0.0	 0.0	 3	   0.000000	 168.297157	   0.000000;
	2	 0.0	 0.0	 3	   0.000000	  55.866922	   0.000000;
	2	 0.0	 0.0	 3	   0.000000	  50.288016	   0.000000;
	2	 0.0	 0.0	 3	   0.000000	 109.141929	   0.000000;
	2	 0.0	 0.0	 3	   0.000000	  22.639737	   0.000000;
	2	 0.0	 0.0	 3	   0.000000	  55.959558	   0.000000;
	2	 0.0	 0.0	 3	   0.000000	  59.413268	   0.000000;
	2	 0.0	 0.0	 3	   0.000000	  44.326312	   0.000000;
	2	 0.0	 0.0	 3	   0.000000	 148.407248	   0.000000;
	2	 0.0	 0.0	 3	   0.000000	  24.388731	   0.000000;
	2	 0.0	 0.0	 3	   0.000000	   5.194934	   0.000000;
	2	 0.0	 0.0	 3	   0.000000	   7.283543	   0.000000;
	2	 0.0	 0.0	 3	   0.000000	 109.329523	   0.000000;
	2	 0.0	 0.0	 3	   0.000000	  43.866889	   0.000000;
	2	 0.0	 0.0	 3	   0.000000	  44.527542	   0.000000;
	2	 0.0	 0.0	 3	   0.000000	   7.224203	   0.000000;
	2	 0.0	 0.0	 3	   0.000000	  34.164551	   0.000000;
	2	 0.0	 0.0	 3	   0.000000	  63.658509	   0.000000;
	2	 0.0	 0.0	 3	   0.000000	  26.112570	   0.000000;
	2	 0.0	 0.0	 3	   0.000000	  27.371743	   0.000000;
	2	 0.0	 0.0	 3	   0.000000	  28.098286	   0.000000;
	2	 0.0	 0.0	 3	   0.000000	  33.731033	   0.000000;
	2	 0.0	 0.0	 3	   0.000000	  37.442516	   0.000000;
	2	 0.0	 0.0	 3	   0.000000	 125.840869	   0.000000;
	2	 0.0	 0.0	 3	   0.000000	  20.838844	   0.000000;
	2	 0.0	 0.0	 3	   0.000000	  38.698180	   0.000000;
	2	 0.0	 0.0	 3	   0.000000	  37.355036	   0.000000;
	2	 0.0	 0.0	 3	   0.000000	  55.731207	   0.000000;
	2	 0.0	 0.0	 3	   0.000000	  42.516234	   0.000000;
	2	 0.0	 0.0	 3	   0.000000	  26.528714	   0.000000;
	2	 0.0	 0.0	 3	   0.000000	  24.237891	   0.000000;
	2	 0.0	 0.0	 3	   0.000000	   7.195302	   0.000000;
	2	 0.0	 0.0	 3	   0.000000	  25.232894	   0.000000;
	2	 0.0	 0.0	 3	   0.000000	  40.811721	   0.000000;
	2	 0.0	 0.0	 3	   0.000000	  41.791599	   0.000000;
	2	 0.0	 0.0	 3	   0.000000	  33.741210	   0.000000;
	2	 0.0	 0.0	 3	   0.000000	  58.276357	   0.000000;
	2	 0.0	 0.0	 3	   0.000000	  46.074426	   0.000000;
	2	 0.0	 0.0	 3	   0.000000	  18.385317	   0.000000;
	2	 0.0	 0.0	 3	   0.000000	  17.932640	   0.000000;
	2	 0.0	 0.0	 3	   0.000000	  20.465005	   0.000000;
	2	 0.0	 0.0	 3	   0.000000	  32.340198	   0.000000;
	2	 0.0	 0.0	 3	   0.000000	   7.090993	   0.000000;
	2	 0.0	 0.0	 3	   0.000000	  52.384025	   0.000000;
	2	 0.0	 0.0	 3	   0.000000	  32.304653	   0.000000;
	2	 0.0	 0.0	 3	   0.000000	  49.034287	   0.000000;
	2	 0.0	 0.0	 3	   0.000000	  23.768358	   0.000000;
	2	 0.0	 0.0	 3	   0.000000	  41.372372	   0.000000;
	2	 0.0	 0.0	 3	   0.000000	  51.402421	   0.000000;
	2	 0.0	 0.0	 3	   0.000000	  46.121270	   0.000000;
	2	 0.0	 0.0	 3	   0.000000	  27.695137	   0.000000;
	2	 0.0	 0.0	 3	   0.000000	  41.186357	   0.000000;
	2	 0.0	 0.0	 3	   0.000000	  40.043684	   0.000000;
	2	 0.0	 0.0	 3	   0.000000	  37.610342	   0.000000;
	2	 0.0	 0.0	 3	   0.000000	  15.332815	   0.000000;
	2	 0.0	 0.0	 3	   0.000000	 134.930079	   0.000000;
	2	 0.0	 0.0	 3	   0.000000	  55.645120	   0.000000;
	2	 0.0	 0.0	 3	   0.000000	  35.239867	   0.000000;
	2	 0.0	 0.0	 3	   0.000000	  42.058600	   0.000000;
	2	 0.0	 0.0	 3	   0.000000	   7.456457	   0.000000;
	2	 0.0	 0.0	 3	   0.000000	   9.212593	   0.000000;
	2	 0.0	 0.0	 3	   0.000000	  41.436131	   0.000000;
	2	 0.0	 0.0	 3	   0.000000	 133.890908	   0.000000;
	2	 0.0	 0.0	 3	   0.000000	 153.361223	   0.000000;
	2	 0.0	 0.0	 3	   0.000000	 157.254327	   0.000000;
	2	 0.0	 0.0	 3	   0.000000	 123.447591	   0.000000;
	2	 0.0	 0.0	 3	   0.000000	 104.790399	   0.000000;
	2	 0.0	 0.0	 3	   0.000000	 112.311439	   0.000000;
	2	 0.0	 0.0	 3	   0.000000	  54.142087	   0.000000;
	2	 0.0	 0.0	 3	   0.000000	 138.862434	   0.000000;
	2	 0.0	 0.0	 3	   0.000000	  46.593249	   0.000000;
	2	 0.0	 0.0	 3	   0.000000	 133.344706	   0.000000;
	2	 0.0	 0.0	 3	   0.000000	  40.517885	   0.000000;
	2	 0.0	 0.0	 3	   0.000000	  30.754776	   0.000000;
	2	 0.0	 0.0	 3	   0.000000	  35.405896	   0.000000;
	2	 0.0	 0.0	 3	   0.000000	  32.352324	   0.000000;
	2	 0.0	 0.0	 3	   0.000000	  23.082378	   0.000000;
	2	 0.0	 0.0	 3	   0.000000	  35.657419	   0.000000;
	2	 0.0	 0.0	 3	   0.000000	   7.241010	   0.000000;
	2	 0.0	 0.0	 3	   0.000000	  25.958677	   0.000000;
	2	 0.0	 0.0	 3	   0.000000	  24.863058	   0.000000;
	2	 0.0	 0.0	 3	   0.000000	  62.497818	   0.000000;
	2	 0.0	 0.0	 3	   0.000000	  35.260956	   0.000000;
	2	 0.0	 0.0	 3	   0.000000	  32.613696	   0.000000;
	2	 0.0	 0.0	 3	   0.000000	  49.667180	   0.000000;
	2	 0.0	 0.0	 3	   0.000000	  36.962898	   0.000000;
	2	 0.0	 0.0	 3	   0.000000	  51.604319	   0.000000;
	2	 0.0	 0.0	 3	   0.000000	 153.211736	   0.000000;
	2	 0.0	 0.0	 3	   0.000000	  23.120548	   0.000000;
	2	 0.0	 0.0	 3	   0.000000	  16.568632	   0.000000;
	2	 0.0	 0.0	 3	   0.000000	  20.388637	   0.000000;
	2	 0.0	 0.0	 3	   0.000000	  52.237408	   0.000000;
	2	 0.0	 0.0	 3	   0.000000	  54.015988	   0.000000;
	2	 0.0	 0.0	 3	   0.000000	  33.087975	   0.000000;
	2	 0.0	 0.0	 3	   0.000000	  49.141145	   0.000000;
	2	 0.0	 0.0	 3	   0.000000	 141.423080	   0.000000;
	2	 0.0	 0.0	 3	   0.000000	 160.240481	   0.000000;
	2	 0.0	 0.0	 3	   0.000000	 123.783104	   0.000000;
	2	 0.0	 0.0	 3	   0.000000	  48.862108	   0.000000;
	2	 0.0	 0.0	 3	   0.000000	 137.815910	   0.000000;
	2	 0.0	 0.0	 3	   0.000000	 140.072658	   0.000000;
	2	 0.0	 0.0	 3	   0.000000	  38.092713	   0.000000;
	2	 0.0	 0.0	 3	   0.000000	  27.914462	   0.000000;
	2	 0.0	 0.0	 3	   0.000000	 116.899383	   0.000000;
	2	 0.0	 0.0	 3	   0.000000	  37.997909	   0.000000;
	2	 0.0	 0.0	 3	   0.000000	  58.423847	   0.000000;
	2	 0.0	 0.0	 3	   0.000000	  39.927685	   0.000000;
...
];

%% branch data
%	fbus	tbus	r	x	b	rateA	rateB	rateC	ratio	angle	status	angmin	angmax
mpc.branch = [
	1833	 1	 0.002607	 0.017462	 0.0324	 540.0	 540.0	 540.0	 1.0	 0.0	 1	 -10.505192	 10.505192;
	29	 2	 2.1e-05	 0.000125	 0.1386	 737.0	 737.0	 737.0	 1.0	 0.0	 1	 -10.505192	 10.505192;
	675	 2	 0.000145	 0.001877	 0.0635	 2487.0	 2487.0	 2487.0	 1.0	 0.0	 1	 -10.505192	 10.505192;
	1271	 2	 0.000319	 0.003234	 0.0838	 1841.0	 1841.0	 1841.0	 1.0	 0.0	 1	 -10.505192	 10.505192;
	30	 2	 2.1e-05	 0.000125	 0.1386	 737.0	 737.0	 737.0	 1.0	 0.0	 1	 -10.505192	 10.505192;
	142	 3	 0.006163	 0.041067	 0.0759	 446.0	 446.0	 446.0	 1.0	 0.0	 1	 -10.505192	 10.505192;
	677	 3	 0.000652	 0.004369	 0.0081	 558.0	 558.0	 558.0	 1.0	 0.0	 1	 -10.505192	 10.505192;
	1048	 4	 0.009733	 0.034089	 0.0185	 905.0	 905.0	 905.0	 1.0	 0.0	 1	 -10.505192	 10.505192;
	101	 5	 0.000277	 0.002015	 0.003	 288.0	 288.0	 288.0	 1.0	 0.0	 1	 -10.505192	 10.505192;
	286	 6	 0.00881	 0.033995	 0.0607	 289.0	 289.0	 289.0	 1.0	 0.0	 1	 -10.505192	 10.505192;
	329	 6	 0.004642	 0.019832	 0.0354	 255.0	 255.0	 255.0	 1.0	 0.0	 1	 -10.505192	 10.505192;
	737	 5	 0.008861	 0.03506	 0.0623	 288.0	 288.0	 288.0	 1.0	 0.0	 1	 -10.505192	 10.505192;
	760	 5	 0.006993	 0.032869	 0.0557	 255.0	 255.0	 255.0	 1.0	 0.0	 1	 -10.505192	 10.505192;
	1330	 6	 0.002173	 0.008731	 0.0152	 3441.0	 3441.0	 3441.0	 1.0	 0.0	 1	 -10.505192	 10.505192;
	1350	 5	 0.00077	 0.003121	 0.0051	 9629.0	 9629.0	 9629.0	 1.0	 0.0	 1	 -10.505192	 10.505192;
	1523	 6	 0.004109	 0.016138	 0.0284	 288.0	 288.0	 288.0	 1.0	 0.0	 1	 -10.505192	 10.505192;
	102	 8	 8.3e-05	 0.000907	 0.0202	 1034.0	 1034.0	 1034.0	 1.0	 0.0	 1	 -10.505192	 10.505192;
	316	 8	 0.000552	 0.006726	 0.0939	 1786.0	 1786.0	 1786.0	 1.0	 0.0	 1	 -10.505192	 10.505192;
	623	 8	 0.000512	 0.008012	 0.2455	 2462.0	 2462.0	 2462.0	 1.0	 0.0	 1	 -10.505192	 10.505192;
	882	 8	 0.001107	 0.00918	 0.1906	 1644.0	 1644.0	 1644.0	 1.0	 0.0	 1	 -10.505192	 10.505192;
	103	 7	 6.2e-05	 0.000741	 0.0173	 1095.0	 1095.0	 1095.0	 1.0	 0.0	 1	 -10.505192	 10.505192;
	623	 8	 0.000512	 0.008019	 0.2455	 2462.0	 2462.0	 2462.0	 1.0	 0.0	 1	 -10.505192	 10.505192;
	623	 7	 0.001153	 0.013123	 0.1841	 1433.0	 1433.0	 1433.0	 1.0	 0.0	 1	 -10.505192	 10.505192;
	113	 9	 0.000158	 0.000672	 0.0719	 331.0	 331.0	 331.0	 1.0	 0.0	 1	 -10.505192	 10.505192;
	1134	 9	 4.5e-05	 8.9e-05	 0.002	 268.0	 268.0	 268.0	 1.0	 0.0	 1	 -10.505192	 10.505192;
	346	 10	 0.00478	 0.028622	 0.0547	 455.0	 455.0	 455.0	 1.0	 0.0	 1	 -10.505192	 10.505192;
	345	 10	 0.00478	 0.028583	 0.0547	 455.0	 455.0	 455.0	 1.0	 0.0	 1	 -10.505192	 10.505192;
	106	 11	 0.000257	 0.000514	 0.0294	 53862.0	 53862.0	 53862.0	 1.0	 0.0	 1	 -10.505192	 10.505192;
	758	 12	 0.000257	 0.002153	 0.2147	 452.0	 452.0	 452.0	 1.0	 0.0	 1	 -10.505192	 10.505192;
	962	 12	 0.000277	 0.000869	 0.0931	 481.0	 481.0	 481.0	 1.0	 0.0	 1	 -10.505192	 10.505192;
	955	 13	 0.000237	 0.00083	 0.1863	 268.0	 268.0	 268.0	 1.0	 0.0	 1	 -10.505192	 10.505192;
	995	 13	 0.000178	 0.000612	 0.1377	 268.0	 268.0	 268.0	 1.0	 0.0	 1	 -10.505192	 10.505192;
	39	 14	 0.002568	 0.011753	 0.0203	 424.0	 424.0	 424.0	 1.0	 0.0	 1	 -10.505192	 10.505192;
	1428	 14	 0.002568	 0.011615	 0.0228	 290.0	 290.0	 290.0	 1.0	 0.0	 1	 -10.505192	 10.505192;
	1054	 16	 9.9e-05	 0.00077	 0.078	 379.0	 379.0	 379.0	 1.0	 0.0	 1	 -10.505192	 10.505192;
	1054	 15	 9.9e-05	 0.00077	 0.077	 379.0	 379.0	 379.0	 1.0	 0.0	 1	 -10.505192	 10.505192;
	1428	 17	 0.000514	 0.003437	 0.0061	 290.0	 290.0	 290.0	 1.0	 0.0	 1	 -10.505192	 10.505192;
	1432	 17	 0.005476	 0.036879	 0.1255	 522.0	 522.0	 522.0	 1.0	 0.0	 1	 -10.505192	 10.505192;
	39	 17	 0.000514	 0.003457	 0.0061	 418.0	 418.0	 418.0	 1.0	 0.0	 1	 -10.505192	 10.505192;
	869	 18	 0.003477	 0.01118	 0.0187	 304.0	 304.0	 304.0	 1.0	 0.0	 1	 -10.505192	 10.505192;
	1089	 18	 0.000612	 0.003121	 0.0152	 270.0	 270.0	 270.0	 1.0	 0.0	 1	 -10.505192	 10.505192;
	1164	 20	 2.4e-05	 0.000144	 0.0213	 701.0	 701.0	 701.0	 1.0	 0.0	 1	 -10.505192	 10.505192;
	1164	 19	 7.1e-05	 0.000162	 0.0162	 251.0	 251.0	 251.0	 1.0	 0.0	 1	 -10.505192	 10.505192;
	972	 21	 0.000257	 0.001165	 0.002	 405.0	 405.0	 405.0	 1.0	 0.0	 1	 -10.505192	 10.505192;
	476	 22	 0.005709	 0.037926	 0.0688	 492.0	 492.0	 492.0	 1.0	 0.0	 1	 -10.505192	 10.505192;
	1497	 22	 0.001758	 0.011654	 0.0208	 492.0	 492.0	 492.0	 1.0	 0.0	 1	 -10.505192	 10.505192;
	69	 23	 0.001383	 0.009462	 0.0172	 463.0	 463.0	 463.0	 1.0	 0.0	 1	 -10.505192	 10.505192;
	446	 23	 0.00156	 0.006933	 0.0121	 432.0	 432.0	 432.0	 1.0	 0.0	 1	 -10.505192	 10.505192;
	605	 23	 0.006376	 0.028733	 0.0506	 432.0	 432.0	 432.0	 1.0	 0.0	 1	 -10.505192	 10.505192;
	987	 23	 0.00158	 0.010627	 0.0192	 481.0	 481.0	 481.0	 1.0	 0.0	 1	 -10.505192	 10.505192;
	845	 25	 0.001086	 0.003536	 0.3766	 506.0	 506.0	 506.0	 1.0	 0.0	 1	 -10.505192	 10.505192;
	845	 25	 0.001086	 0.003536	 0.3766	 506.0	 506.0	 506.0	 1.0	 0.0	 1	 -10.505192	 10.505192;
	123	 27	 0.004741	 0.020385	 0.0334	 1479.0	 1479.0	 1479.0	 1.0	 0.0	 1	 -10.505192	 10.505192;
	1479	 27	 0.009027	 0.048869	 0.084	 351.0	 351.0	 351.0	 1.0	 0.0	 1	 -10.505192	 10.505192;
	1500	 27	 0.003516	 0.016257	 0.0273	 311.0	 311.0	 311.0	 1.0	 0.0	 1	 -10.505192	 10.505192;
	289	 28	 0.000514	 0.003417	 0.0278	 452.0	 452.0	 452.0	 1.0	 0.0	 1	 -10.505192	 10.505192;
	307	 28	 0.001084	 0.007198	 0.0132	 448.0	 448.0	 448.0	 1.0	 0.0	 1	 -10.505192	 10.505192;
	1451	 28	 0.000523	 0.002436	 0.0167	 348.0	 348.0	 348.0	 1.0	 0.0	 1	 -10.505192	 10.505192;
	289	 28	 0.000514	 0.003457	 0.0203	 356.0	 356.0	 356.0	 1.0	 0.0	 1	 -10.505192	 10.505192;
	307	 28	 0.001086	 0.007249	 0.0132	 540.0	 540.0	 540.0	 1.0	 0.0	 1	 -10.505192	 10.505192;
	1450	 28	 0.000553	 0.002469	 0.0157	 405.0	 405.0	 405.0	 1.0	 0.0	 1	 -10.505192	 10.505192;
	307	 28	 0.001086	 0.007269	 0.0132	 540.0	 540.0	 540.0	 1.0	 0.0	 1	 -10.505192	 10.505192;
	842	 31	 0.001837	 0.011694	 0.0759	 467.0	 467.0	 467.0	 1.0	 0.0	 1	 -10.505192	 10.505192;
	960	 31	 0.001067	 0.007131	 0.0132	 413.0	 413.0	 413.0	 1.0	 0.0	 1	 -10.505192	 10.505192;
	1269	 31	 0.001284	 0.008593	 0.0152	 541.0	 541.0	 541.0	 1.0	 0.0	 1	 -10.505192	 10.505192;
	1270	 31	 0.001284	 0.008593	 0.0162	 541.0	 541.0	 541.0	 1.0	 0.0	 1	 -10.505192	 10.505192;
	1270	 31	 0.001284	 0.008533	 0.0162	 541.0	 541.0	 541.0	 1.0	 0.0	 1	 -10.505192	 10.505192;
...